act_311572
     RDKit          3D

 37 40  0  0  0  0  0  0  0  0999 V2000
    0.0610   28.3430   11.2010 O   0  0  0  0  0  0  0  0  0  0  0  0
   -1.0300   28.1090   10.7010 C   0  0  0  0  0  0  0  0  0  0  0  0
   -1.8280   27.0130   10.9560 N   0  0  0  0  0  0  0  0  0  0  0  0
   -1.5480   25.9650   11.7950 C   0  0  0  0  0  0  0  0  0  0  0  0
   -1.1450   24.8090   11.3170 N   0  0  0  0  0  0  0  0  0  0  0  0
   -0.9090   23.9360   12.3630 C   0  0  0  0  0  0  0  0  0  0  0  0
   -1.1000   24.4680   13.6180 C   0  0  0  0  0  0  0  0  0  0  0  0
   -0.9280   23.6940   14.9560 C   0  0  0  0  0  0  0  0  0  0  0  0
   -0.0210   22.4360   14.8970 C   0  0  0  0  0  0  0  0  0  0  0  0
   -0.9960   21.7800   15.8970 C   0  0  0  0  0  0  0  0  0  0  0  0
   -2.0790   22.7250   15.3360 C   0  0  0  0  0  0  0  0  0  0  0  0
   -1.6230   26.0840   13.4930 S   0  0  0  0  0  0  0  0  0  0  0  0
   -1.6240   28.8910    9.7150 N   0  0  0  0  0  0  0  0  0  0  0  0
   -1.2370   30.2110    9.4230 C   0  0  0  0  0  0  0  0  0  0  0  0
   -1.8590   31.2950   10.0930 C   0  0  0  0  0  0  0  0  0  0  0  0
   -1.5260   32.6680    9.8610 C   0  0  0  0  0  0  0  0  0  0  0  0
   -0.5290   33.0940    8.9610 C   0  0  0  0  0  0  0  0  0  0  0  0
    0.0940   32.0110    8.3540 C   0  0  0  0  0  0  0  0  0  0  0  0
    1.1240   32.0980    7.4610 C   0  0  0  0  0  0  0  0  0  0  0  0
    1.4250   30.8020    7.1610 N   0  0  0  0  0  0  0  0  0  0  0  0
    0.7000   29.8930    7.8340 N   0  0  0  0  0  0  0  0  0  0  0  0
   -0.1950   30.6060    8.5440 C   0  0  0  0  0  0  0  0  0  0  0  0
   -2.8050   27.0850   10.7210 H   0  0  0  0  0  0  0  0  0  0  0  0
   -0.5924   22.8946   12.2041 H   0  0  0  0  0  0  0  0  0  0  0  0
   -0.6769   24.5726   15.5685 H   0  0  0  0  0  0  0  0  0  0  0  0
    0.0253   21.9481   13.9122 H   0  0  0  0  0  0  0  0  0  0  0  0
    1.0607   22.4896   15.0897 H   0  0  0  0  0  0  0  0  0  0  0  0
   -1.1833   20.7101   15.7234 H   0  0  0  0  0  0  0  0  0  0  0  0
   -0.7749   21.7203   16.9729 H   0  0  0  0  0  0  0  0  0  0  0  0
   -2.6426   22.3227   14.4813 H   0  0  0  0  0  0  0  0  0  0  0  0
   -2.9369   23.0509   15.9424 H   0  0  0  0  0  0  0  0  0  0  0  0
   -2.0410   28.3620    8.9640 H   0  0  0  0  0  0  0  0  0  0  0  0
   -2.6412   31.0683   10.8324 H   0  0  0  0  0  0  0  0  0  0  0  0
   -2.0817   33.4362   10.4187 H   0  0  0  0  0  0  0  0  0  0  0  0
   -0.2770   34.1466    8.7648 H   0  0  0  0  0  0  0  0  0  0  0  0
    1.6029   33.0084    7.0715 H   0  0  0  0  0  0  0  0  0  0  0  0
    2.1310   30.4590    6.5200 H   0  0  0  0  0  0  0  0  0  0  0  0
  1  2  2  0
  2  3  1  0
  3  4  1  0
  4  5  2  0
  5  6  1  0
  6  7  2  0
  7  8  1  0
  8  9  1  0
  9 10  1  0
 10 11  1  0
  7 12  1  0
  2 13  1  0
 13 14  1  0
 14 15  2  0
 15 16  1  0
 16 17  2  0
 17 18  1  0
 18 19  2  0
 19 20  1  0
 20 21  1  0
 21 22  2  0
 12  4  1  0
 22 14  1  0
 11  8  1  0
 22 18  1  0
  3 23  1  0
  6 24  1  0
  8 25  1  0
  9 26  1  0
  9 27  1  0
 10 28  1  0
 10 29  1  0
 11 30  1  0
 11 31  1  0
 13 32  1  0
 15 33  1  0
 16 34  1  0
 17 35  1  0
 19 36  1  0
 20 37  1  0
M  END
>  <vina_affinity>  (1) 
-7.914

$$$$
act_67781
     RDKit          3D

 35 37  0  0  0  0  0  0  0  0999 V2000
   -0.8120   26.0270    9.7110 C   0  0  0  0  0  0  0  0  0  0  0  0
   -0.8100   26.9990   10.8380 C   0  0  0  0  0  0  0  0  0  0  0  0
   -1.2190   26.5420   12.0830 N   0  0  0  0  0  0  0  0  0  0  0  0
   -1.1760   27.5090   12.9600 C   0  0  0  0  0  0  0  0  0  0  0  0
   -1.5230   27.3430   14.2470 N   0  0  0  0  0  0  0  0  0  0  0  0
   -0.6150   29.0110   12.3690 S   0  0  0  0  0  0  0  0  0  0  0  0
   -0.4270   28.3360   10.7950 C   0  0  0  0  0  0  0  0  0  0  0  0
    0.0400   29.1520    9.6680 C   0  0  0  0  0  0  0  0  0  0  0  0
   -0.7820   29.9990    8.9570 C   0  0  0  0  0  0  0  0  0  0  0  0
   -0.1780   30.6880    7.9380 C   0  0  0  0  0  0  0  0  0  0  0  0
    1.1240   30.5670    7.6320 N   0  0  0  0  0  0  0  0  0  0  0  0
    1.8580   29.7250    8.3700 C   0  0  0  0  0  0  0  0  0  0  0  0
    3.2140   29.5240    8.1300 N   0  0  0  0  0  0  0  0  0  0  0  0
    3.9450   28.5690    7.4150 C   0  0  0  0  0  0  0  0  0  0  0  0
    3.7520   28.4880    6.0230 C   0  0  0  0  0  0  0  0  0  0  0  0
    4.4420   27.5590    5.2370 C   0  0  0  0  0  0  0  0  0  0  0  0
    5.3450   26.6830    5.8300 C   0  0  0  0  0  0  0  0  0  0  0  0
    5.5470   26.7470    7.2130 C   0  0  0  0  0  0  0  0  0  0  0  0
    6.4960   25.8240    7.8480 N   0  0  0  0  0  0  0  0  0  0  0  0
    7.4250   26.3170    8.5050 O   0  0  0  0  0  0  0  0  0  0  0  0
    6.3180   24.6070    7.6960 O   0  0  0  0  0  0  0  0  0  0  0  0
    4.8530   27.6810    8.0010 C   0  0  0  0  0  0  0  0  0  0  0  0
    1.3530   29.0130    9.3880 N   0  0  0  0  0  0  0  0  0  0  0  0
   -0.8141   25.0022   10.1107 H   0  0  0  0  0  0  0  0  0  0  0  0
   -1.7098   26.1820    9.0947 H   0  0  0  0  0  0  0  0  0  0  0  0
    0.0865   26.1783    9.0947 H   0  0  0  0  0  0  0  0  0  0  0  0
   -2.5140   27.2010   14.4020 H   0  0  0  0  0  0  0  0  0  0  0  0
   -0.9310   26.7530   14.8180 H   0  0  0  0  0  0  0  0  0  0  0  0
   -1.8505   30.1143    9.1914 H   0  0  0  0  0  0  0  0  0  0  0  0
   -0.7921   31.3766    7.3390 H   0  0  0  0  0  0  0  0  0  0  0  0
    3.7380   30.2300    8.6270 H   0  0  0  0  0  0  0  0  0  0  0  0
    3.0397   29.1734    5.5405 H   0  0  0  0  0  0  0  0  0  0  0  0
    4.2706   27.5214    4.1511 H   0  0  0  0  0  0  0  0  0  0  0  0
    5.8929   25.9498    5.2199 H   0  0  0  0  0  0  0  0  0  0  0  0
    5.0252   27.7140    9.0869 H   0  0  0  0  0  0  0  0  0  0  0  0
  1  2  1  0
  2  3  1  0
  3  4  2  0
  4  5  1  0
  4  6  1  0
  6  7  1  0
  7  8  1  0
  8  9  2  0
  9 10  1  0
 10 11  2  0
 11 12  1  0
 12 13  1  0
 13 14  1  0
 14 15  2  0
 15 16  1  0
 16 17  2  0
 17 18  1  0
 18 19  1  0
 19 20  2  0
 19 21  1  0
 18 22  2  0
 12 23  2  0
  7  2  2  0
 23  8  1  0
 22 14  1  0
  1 24  1  0
  1 25  1  0
  1 26  1  0
  5 27  1  0
  5 28  1  0
  9 29  1  0
 10 30  1  0
 13 31  1  0
 15 32  1  0
 16 33  1  0
 17 34  1  0
 22 35  1  0
M  CHG  2  19   1  21  -1
M  END
>  <vina_affinity>  (2) 
-7.858

$$$$
act_131439
     RDKit          3D

 41 45  0  0  0  0  0  0  0  0999 V2000
    2.1350   31.6050    7.5460 O   0  0  0  0  0  0  0  0  0  0  0  0
    1.0900   31.3210    8.0930 C   0  0  0  0  0  0  0  0  0  0  0  0
   -0.0140   32.1530    8.2110 N   0  0  0  0  0  0  0  0  0  0  0  0
   -1.0160   31.4980    8.9100 C   0  0  0  0  0  0  0  0  0  0  0  0
   -2.2700   31.9450    9.2570 C   0  0  0  0  0  0  0  0  0  0  0  0
   -3.0830   31.0610    9.9740 C   0  0  0  0  0  0  0  0  0  0  0  0
   -2.6240   29.7730   10.3210 C   0  0  0  0  0  0  0  0  0  0  0  0
   -3.4570   28.9860   11.0160 F   0  0  0  0  0  0  0  0  0  0  0  0
   -1.3260   29.3120    9.9660 C   0  0  0  0  0  0  0  0  0  0  0  0
   -0.6660   28.0760   10.2090 C   0  0  0  0  0  0  0  0  0  0  0  0
   -1.4250   26.7150   11.0920 S   0  0  0  0  0  0  0  0  0  0  0  0
    0.0820   25.7670   11.5720 C   0  0  1  0  0  0  0  0  0  0  0  0
   -0.0200   25.3360   13.0300 C   0  0  0  0  0  0  0  0  0  0  0  0
   -0.6570   23.9490   12.9990 C   0  0  0  0  0  0  0  0  0  0  0  0
   -0.7700   23.5470   11.5860 N   0  0  0  0  0  0  0  0  0  0  0  0
    0.1670   24.4200   10.8600 C   0  0  0  0  0  0  0  0  0  0  0  0
    0.6480   27.8620    9.7110 C   0  0  0  0  0  0  0  0  0  0  0  0
    1.3620   28.8480    8.9930 C   0  0  0  0  0  0  0  0  0  0  0  0
    2.7110   28.5540    8.5140 C   0  0  0  0  0  0  0  0  0  0  0  0
    3.7390   27.8270    9.0900 C   0  0  0  0  0  0  0  0  0  0  0  0
    4.8520   27.8610    8.2170 C   0  0  0  0  0  0  0  0  0  0  0  0
    4.4870   28.6050    7.1210 C   0  0  0  0  0  0  0  0  0  0  0  0
    3.1920   29.0130    7.3050 N   0  0  0  0  0  0  0  0  0  0  0  0
    0.7070   30.0490    8.7730 C   0  0  0  0  0  0  0  0  0  0  0  0
   -0.5750   30.2430    9.2470 C   0  0  0  0  0  0  0  0  0  0  0  0
   -0.0430   33.0900    7.8390 H   0  0  0  0  0  0  0  0  0  0  0  0
   -2.6176   32.9520    8.9830 H   0  0  0  0  0  0  0  0  0  0  0  0
   -4.0945   31.3746   10.2715 H   0  0  0  0  0  0  0  0  0  0  0  0
    0.9268   26.4313   11.3375 H   0  0  0  0  0  0  0  0  0  0  0  0
    0.9788   25.2907   13.4887 H   0  0  0  0  0  0  0  0  0  0  0  0
   -0.6131   26.0454   13.6258 H   0  0  0  0  0  0  0  0  0  0  0  0
   -0.0248   23.2327   13.5442 H   0  0  0  0  0  0  0  0  0  0  0  0
   -1.6470   23.9657   13.4782 H   0  0  0  0  0  0  0  0  0  0  0  0
   -1.7160   23.7900   11.2790 H   0  0  0  0  0  0  0  0  0  0  0  0
    1.1897   24.0184   10.9127 H   0  0  0  0  0  0  0  0  0  0  0  0
   -0.0848   24.4999    9.7922 H   0  0  0  0  0  0  0  0  0  0  0  0
    1.1288   26.8893    9.8918 H   0  0  0  0  0  0  0  0  0  0  0  0
    3.6975   27.3111   10.0606 H   0  0  0  0  0  0  0  0  0  0  0  0
    5.8276   27.3813    8.3845 H   0  0  0  0  0  0  0  0  0  0  0  0
    5.1211   28.8324    6.2514 H   0  0  0  0  0  0  0  0  0  0  0  0
    2.6610   29.5600    6.6410 H   0  0  0  0  0  0  0  0  0  0  0  0
  1  2  2  0
  2  3  1  0
  3  4  1  0
  4  5  2  0
  5  6  1  0
  6  7  2  0
  7  8  1  0
  7  9  1  0
  9 10  2  0
 10 11  1  0
 11 12  1  0
 12 13  1  0
 13 14  1  0
 14 15  1  0
 15 16  1  0
 10 17  1  0
 17 18  2  0
 18 19  1  0
 19 20  2  0
 20 21  1  0
 21 22  2  0
 22 23  1  0
 18 24  1  0
 24 25  2  0
 24  2  1  0
 25  4  1  0
 25  9  1  0
 16 12  1  0
 23 19  1  0
  3 26  1  0
  5 27  1  0
  6 28  1  0
 12 29  1  1
 13 30  1  0
 13 31  1  0
 14 32  1  0
 14 33  1  0
 15 34  1  0
 16 35  1  0
 16 36  1  0
 17 37  1  0
 20 38  1  0
 21 39  1  0
 22 40  1  0
 23 41  1  0
M  END
>  <vina_affinity>  (3) 
-8.808

$$$$
act_453027
     RDKit          3D

 52 55  0  0  0  0  0  0  0  0999 V2000
   -0.2110   19.1360   16.4810 C   0  0  0  0  0  0  0  0  0  0  0  0
   -0.4360   20.2270   15.5660 N   0  0  0  0  0  0  0  0  0  0  0  0
   -0.5310   21.5220   16.0340 C   0  0  0  0  0  0  0  0  0  0  0  0
   -0.5010   21.8170   17.2240 O   0  0  0  0  0  0  0  0  0  0  0  0
   -0.6310   22.5920   15.0010 C   0  0  0  0  0  0  0  0  0  0  0  0
    0.2430   22.6600   13.9140 C   0  0  0  0  0  0  0  0  0  0  0  0
    0.1110   23.6860   12.9670 C   0  0  0  0  0  0  0  0  0  0  0  0
   -0.8920   24.6550   13.0770 C   0  0  0  0  0  0  0  0  0  0  0  0
   -1.0740   25.6970   12.1630 N   0  0  0  0  0  0  0  0  0  0  0  0
   -0.7580   27.0520   12.1590 C   0  0  0  0  0  0  0  0  0  0  0  0
   -1.1040   27.8670   13.1660 N   0  0  0  0  0  0  0  0  0  0  0  0
   -0.7700   29.1650   13.0560 C   0  0  0  0  0  0  0  0  0  0  0  0
   -0.0970   29.6820   11.9810 C   0  0  0  0  0  0  0  0  0  0  0  0
    0.2330   28.7720   11.0040 C   0  0  0  0  0  0  0  0  0  0  0  0
    0.9260   29.1810    9.7910 C   0  0  0  0  0  0  0  0  0  0  0  0
    2.1560   28.7470    9.3300 C   0  0  0  0  0  0  0  0  0  0  0  0
    2.5050   29.3560    8.1640 N   0  0  0  0  0  0  0  0  0  0  0  0
    1.5190   30.1810    7.8870 C   0  0  0  0  0  0  0  0  0  0  0  0
    1.4970   31.0920    6.7110 C   0  0  0  0  0  0  0  0  0  0  0  0
    0.5060   30.0870    8.8320 N   0  0  0  0  0  0  0  0  0  0  0  0
   -0.7490   30.8110    8.7450 C   0  0  0  0  0  0  0  0  0  0  0  0
   -2.0320   30.0620    9.1250 C   0  0  0  0  0  0  0  0  0  0  0  0
   -3.0240   31.1930    9.3540 C   0  0  0  0  0  0  0  0  0  0  0  0
   -2.2040   32.2450   10.0880 C   0  0  0  0  0  0  0  0  0  0  0  0
   -0.7930   32.1450    9.5060 C   0  0  0  0  0  0  0  0  0  0  0  0
   -0.0870   27.4680   11.0740 N   0  0  0  0  0  0  0  0  0  0  0  0
   -1.7730   24.5580   14.1660 C   0  0  0  0  0  0  0  0  0  0  0  0
   -1.6490   23.5390   15.1170 C   0  0  0  0  0  0  0  0  0  0  0  0
   -0.2867   19.5032   17.5151 H   0  0  0  0  0  0  0  0  0  0  0  0
   -0.9669   18.3547   16.3130 H   0  0  0  0  0  0  0  0  0  0  0  0
    0.7923   18.7176   16.3130 H   0  0  0  0  0  0  0  0  0  0  0  0
   -0.2020   20.0810   14.5940 H   0  0  0  0  0  0  0  0  0  0  0  0
    1.0368   21.9071   13.8003 H   0  0  0  0  0  0  0  0  0  0  0  0
    0.8111   23.7297   12.1197 H   0  0  0  0  0  0  0  0  0  0  0  0
   -1.5640   25.4770   11.3080 H   0  0  0  0  0  0  0  0  0  0  0  0
   -1.0520   29.8469   13.8718 H   0  0  0  0  0  0  0  0  0  0  0  0
    0.1611   30.7486   11.9045 H   0  0  0  0  0  0  0  0  0  0  0  0
    2.7775   27.9992    9.8443 H   0  0  0  0  0  0  0  0  0  0  0  0
    1.4718   32.1361    7.0564 H   0  0  0  0  0  0  0  0  0  0  0  0
    2.3994   30.9284    6.1035 H   0  0  0  0  0  0  0  0  0  0  0  0
    0.6036   30.8851    6.1035 H   0  0  0  0  0  0  0  0  0  0  0  0
   -0.7481   30.9722    7.6569 H   0  0  0  0  0  0  0  0  0  0  0  0
   -2.3632   29.4030    8.3088 H   0  0  0  0  0  0  0  0  0  0  0  0
   -1.9110   29.4039    9.9981 H   0  0  0  0  0  0  0  0  0  0  0  0
   -3.4002   31.5851    8.3976 H   0  0  0  0  0  0  0  0  0  0  0  0
   -3.9132   30.8742    9.9176 H   0  0  0  0  0  0  0  0  0  0  0  0
   -2.6213   33.2478    9.9137 H   0  0  0  0  0  0  0  0  0  0  0  0
   -2.2088   32.0797   11.1755 H   0  0  0  0  0  0  0  0  0  0  0  0
   -0.6008   32.9837    8.8207 H   0  0  0  0  0  0  0  0  0  0  0  0
   -0.0258   32.1881   10.2932 H   0  0  0  0  0  0  0  0  0  0  0  0
   -2.5784   25.2994   14.2740 H   0  0  0  0  0  0  0  0  0  0  0  0
   -2.3558   23.4845   15.9581 H   0  0  0  0  0  0  0  0  0  0  0  0
  1  2  1  0
  2  3  1  0
  3  4  2  0
  3  5  1  0
  5  6  2  0
  6  7  1  0
  7  8  2  0
  8  9  1  0
  9 10  1  0
 10 11  2  0
 11 12  1  0
 12 13  2  0
 13 14  1  0
 14 15  1  0
 15 16  2  0
 16 17  1  0
 17 18  2  0
 18 19  1  0
 18 20  1  0
 20 21  1  0
 21 22  1  0
 22 23  1  0
 23 24  1  0
 24 25  1  0
 14 26  2  0
  8 27  1  0
 27 28  2  0
 28  5  1  0
 26 10  1  0
 20 15  1  0
 25 21  1  0
  1 29  1  0
  1 30  1  0
  1 31  1  0
  2 32  1  0
  6 33  1  0
  7 34  1  0
  9 35  1  0
 12 36  1  0
 13 37  1  0
 16 38  1  0
 19 39  1  0
 19 40  1  0
 19 41  1  0
 21 42  1  0
 22 43  1  0
 22 44  1  0
 23 45  1  0
 23 46  1  0
 24 47  1  0
 24 48  1  0
 25 49  1  0
 25 50  1  0
 27 51  1  0
 28 52  1  0
M  END
>  <vina_affinity>  (4) 
-8.985

$$$$
act_319984
     RDKit          3D

 57 61  0  0  0  0  0  0  0  0999 V2000
   -2.8050   28.8410   10.8360 O   0  0  0  0  0  0  0  0  0  0  0  0
   -1.9900   29.4510   10.1480 C   0  0  0  0  0  0  0  0  0  0  0  0
   -2.4270   30.7370    9.5470 C   0  0  0  0  0  0  0  0  0  0  0  0
   -1.6070   31.4840    8.8050 C   0  0  0  0  0  0  0  0  0  0  0  0
   -0.2480   31.0210    8.5860 C   0  0  0  0  0  0  0  0  0  0  0  0
    0.6730   31.7360    7.8570 C   0  0  0  0  0  0  0  0  0  0  0  0
    1.9350   31.3280    7.6480 N   0  0  0  0  0  0  0  0  0  0  0  0
    2.2910   30.1450    8.1650 C   0  0  0  0  0  0  0  0  0  0  0  0
    3.5870   29.6530    8.0270 N   0  0  0  0  0  0  0  0  0  0  0  0
    3.9860   28.5440    7.2640 C   0  0  0  0  0  0  0  0  0  0  0  0
    3.7300   28.5700    5.8970 C   0  0  0  0  0  0  0  0  0  0  0  0
    4.1130   27.4890    5.0940 C   0  0  0  0  0  0  0  0  0  0  0  0
    4.7460   26.3710    5.6380 C   0  0  0  0  0  0  0  0  0  0  0  0
    5.1410   25.2950    4.8600 N   0  0  0  0  0  0  0  0  0  0  0  0
    6.5110   25.2180    4.3210 C   0  0  0  0  0  0  0  0  0  0  0  0
    6.5500   24.4770    2.9640 C   0  0  0  0  0  0  0  0  0  0  0  0
    5.9630   23.1270    2.9590 N   0  0  0  0  0  0  0  0  0  0  0  0
    4.8400   23.0250    3.9100 C   0  0  0  0  0  0  0  0  0  0  0  0
    4.1590   24.3610    4.2830 C   0  0  0  0  0  0  0  0  0  0  0  0
    4.9570   26.4540    7.0170 C   0  0  0  0  0  0  0  0  0  0  0  0
    4.6020   27.4900    7.8220 N   0  0  0  0  0  0  0  0  0  0  0  0
    1.4690   29.3890    8.9120 N   0  0  0  0  0  0  0  0  0  0  0  0
    0.2060   29.8230    9.1090 C   0  0  0  0  0  0  0  0  0  0  0  0
   -0.6930   29.0260    9.8840 N   0  0  0  0  0  0  0  0  0  0  0  0
   -0.1980   27.7600   10.4640 C   0  0  0  0  0  0  0  0  0  0  0  0
   -0.7330   26.5090    9.7280 C   0  0  0  0  0  0  0  0  0  0  0  0
   -1.5220   25.5650   10.6300 C   0  0  0  0  0  0  0  0  0  0  0  0
   -0.7430   25.1810   11.8860 C   0  0  0  0  0  0  0  0  0  0  0  0
   -0.0200   26.3530   12.5520 C   0  0  0  0  0  0  0  0  0  0  0  0
   -0.4280   27.7080   11.9850 C   0  0  0  0  0  0  0  0  0  0  0  0
   -3.4567   31.0839    9.7185 H   0  0  0  0  0  0  0  0  0  0  0  0
   -1.9537   32.4320    8.3678 H   0  0  0  0  0  0  0  0  0  0  0  0
    0.3584   32.6956    7.4208 H   0  0  0  0  0  0  0  0  0  0  0  0
    3.9990   29.6430    8.9500 H   0  0  0  0  0  0  0  0  0  0  0  0
    3.2272   29.4389    5.4474 H   0  0  0  0  0  0  0  0  0  0  0  0
    3.9109   27.5217    4.0132 H   0  0  0  0  0  0  0  0  0  0  0  0
    6.8972   26.2385    4.1814 H   0  0  0  0  0  0  0  0  0  0  0  0
    7.1304   24.6571    5.0364 H   0  0  0  0  0  0  0  0  0  0  0  0
    6.0029   25.0866    2.2298 H   0  0  0  0  0  0  0  0  0  0  0  0
    7.6153   24.3426    2.7252 H   0  0  0  0  0  0  0  0  0  0  0  0
    6.6720   22.4470    3.2290 H   0  0  0  0  0  0  0  0  0  0  0  0
    4.0776   22.3690    3.4646 H   0  0  0  0  0  0  0  0  0  0  0  0
    5.2705   22.6350    4.8441 H   0  0  0  0  0  0  0  0  0  0  0  0
    3.7206   24.8090    3.3791 H   0  0  0  0  0  0  0  0  0  0  0  0
    3.3732   24.1650    5.0274 H   0  0  0  0  0  0  0  0  0  0  0  0
    5.4578   25.6000    7.4963 H   0  0  0  0  0  0  0  0  0  0  0  0
    0.8905   27.7415   10.3067 H   0  0  0  0  0  0  0  0  0  0  0  0
   -1.3902   26.8402    8.9104 H   0  0  0  0  0  0  0  0  0  0  0  0
    0.1406   25.9510    9.3600 H   0  0  0  0  0  0  0  0  0  0  0  0
   -2.4565   26.0612   10.9308 H   0  0  0  0  0  0  0  0  0  0  0  0
   -1.7220   24.6443   10.0623 H   0  0  0  0  0  0  0  0  0  0  0  0
   -1.4483   24.7516   12.6128 H   0  0  0  0  0  0  0  0  0  0  0  0
    0.0316   24.4651   11.5738 H   0  0  0  0  0  0  0  0  0  0  0  0
   -0.2496   26.3402   13.6277 H   0  0  0  0  0  0  0  0  0  0  0  0
    1.0555   26.2272   12.3587 H   0  0  0  0  0  0  0  0  0  0  0  0
   -1.4943   27.8793   12.1938 H   0  0  0  0  0  0  0  0  0  0  0  0
    0.1870   28.4867   12.4598 H   0  0  0  0  0  0  0  0  0  0  0  0
  1  2  2  0
  2  3  1  0
  3  4  2  0
  4  5  1  0
  5  6  2  0
  6  7  1  0
  7  8  2  0
  8  9  1  0
  9 10  1  0
 10 11  2  0
 11 12  1  0
 12 13  2  0
 13 14  1  0
 14 15  1  0
 15 16  1  0
 16 17  1  0
 17 18  1  0
 18 19  1  0
 13 20  1  0
 20 21  2  0
  8 22  1  0
 22 23  2  0
 23 24  1  0
 24 25  1  0
 25 26  1  0
 26 27  1  0
 27 28  1  0
 28 29  1  0
 29 30  1  0
 24  2  1  0
 30 25  1  0
 23  5  1  0
 21 10  1  0
 19 14  1  0
  3 31  1  0
  4 32  1  0
  6 33  1  0
  9 34  1  0
 11 35  1  0
 12 36  1  0
 15 37  1  0
 15 38  1  0
 16 39  1  0
 16 40  1  0
 17 41  1  0
 18 42  1  0
 18 43  1  0
 19 44  1  0
 19 45  1  0
 20 46  1  0
 25 47  1  0
 26 48  1  0
 26 49  1  0
 27 50  1  0
 27 51  1  0
 28 52  1  0
 28 53  1  0
 29 54  1  0
 29 55  1  0
 30 56  1  0
 30 57  1  0
M  END
>  <vina_affinity>  (5) 
-9.360

$$$$
act_247581
     RDKit          3D

 47 50  0  0  0  0  0  0  0  0999 V2000
    7.3620   25.9430    7.8360 C   0  0  0  0  0  0  0  0  0  0  0  0
    6.3320   25.8540    6.8600 O   0  0  0  0  0  0  0  0  0  0  0  0
    5.3630   26.8170    6.8920 C   0  0  0  0  0  0  0  0  0  0  0  0
    4.7060   27.3600    5.7900 C   0  0  0  0  0  0  0  0  0  0  0  0
    3.7280   28.3490    5.9670 C   0  0  0  0  0  0  0  0  0  0  0  0
    3.3920   28.8110    7.2460 C   0  0  0  0  0  0  0  0  0  0  0  0
    2.3780   29.8450    7.4330 C   0  0  0  0  0  0  0  0  0  0  0  0
    2.2300   30.9450    6.5950 N   0  0  0  0  0  0  0  0  0  0  0  0
    1.2210   31.7950    6.9320 N   0  0  0  0  0  0  0  0  0  0  0  0
    0.7380   31.2250    8.0230 C   0  0  0  0  0  0  0  0  0  0  0  0
    1.4040   30.0460    8.3770 C   0  0  0  0  0  0  0  0  0  0  0  0
    0.8200   29.4880    9.5680 C   0  0  0  0  0  0  0  0  0  0  0  0
    1.1220   28.4840   10.1900 O   0  0  0  0  0  0  0  0  0  0  0  0
   -0.2850   30.4430    9.9170 C   0  0  0  0  0  0  0  0  0  0  0  0
   -1.1720   30.3840   10.9790 C   0  0  0  0  0  0  0  0  0  0  0  0
   -1.0800   29.3080   11.8860 N   0  0  0  0  0  0  0  0  0  0  0  0
   -1.8910   28.1900   11.9620 C   0  0  0  0  0  0  0  0  0  0  0  0
   -2.8270   27.9420   11.2110 O   0  0  0  0  0  0  0  0  0  0  0  0
   -1.4850   27.3640   13.0150 N   0  0  0  0  0  0  0  0  0  0  0  0
   -2.1390   26.1610   13.3720 N   0  0  0  0  0  0  0  0  0  0  0  0
   -2.2770   26.0120   14.8220 C   0  0  0  0  0  0  0  0  0  0  0  0
   -1.5200   24.9800   12.7690 C   0  0  0  0  0  0  0  0  0  0  0  0
   -2.1010   31.4290   11.0600 C   0  0  0  0  0  0  0  0  0  0  0  0
   -2.1250   32.4750   10.1050 C   0  0  0  0  0  0  0  0  0  0  0  0
   -1.2220   32.5150    9.0380 C   0  0  0  0  0  0  0  0  0  0  0  0
   -0.3090   31.4900    8.9610 C   0  0  0  0  0  0  0  0  0  0  0  0
    4.0520   28.2540    8.3470 C   0  0  0  0  0  0  0  0  0  0  0  0
    5.0300   27.2690    8.1690 C   0  0  0  0  0  0  0  0  0  0  0  0
    6.9183   25.9047    8.8418 H   0  0  0  0  0  0  0  0  0  0  0  0
    8.0596   25.1018    7.7106 H   0  0  0  0  0  0  0  0  0  0  0  0
    7.9050   26.8914    7.7106 H   0  0  0  0  0  0  0  0  0  0  0  0
    4.9555   27.0114    4.7770 H   0  0  0  0  0  0  0  0  0  0  0  0
    3.2167   28.7685    5.0880 H   0  0  0  0  0  0  0  0  0  0  0  0
    2.7940   31.1760    5.7840 H   0  0  0  0  0  0  0  0  0  0  0  0
   -0.2890   29.3370   12.5240 H   0  0  0  0  0  0  0  0  0  0  0  0
   -0.8250   27.7270   13.6910 H   0  0  0  0  0  0  0  0  0  0  0  0
   -1.6137   26.7282   15.3290 H   0  0  0  0  0  0  0  0  0  0  0  0
   -3.3195   26.2082   15.1132 H   0  0  0  0  0  0  0  0  0  0  0  0
   -2.0016   24.9876   15.1132 H   0  0  0  0  0  0  0  0  0  0  0  0
   -1.1665   24.3056   13.5629 H   0  0  0  0  0  0  0  0  0  0  0  0
   -2.2596   24.4564   12.1454 H   0  0  0  0  0  0  0  0  0  0  0  0
   -0.6686   25.2903   12.1454 H   0  0  0  0  0  0  0  0  0  0  0  0
   -2.8291   31.4377   11.8845 H   0  0  0  0  0  0  0  0  0  0  0  0
   -2.8726   33.2757   10.2052 H   0  0  0  0  0  0  0  0  0  0  0  0
   -1.2412   33.3271    8.2963 H   0  0  0  0  0  0  0  0  0  0  0  0
    3.7996   28.5937    9.3623 H   0  0  0  0  0  0  0  0  0  0  0  0
    5.5420   26.8464    9.0461 H   0  0  0  0  0  0  0  0  0  0  0  0
  1  2  1  0
  2  3  1  0
  3  4  2  0
  4  5  1  0
  5  6  2  0
  6  7  1  0
  7  8  1  0
  8  9  1  0
  9 10  2  0
 10 11  1  0
 11 12  1  0
 12 13  2  0
 12 14  1  0
 14 15  2  0
 15 16  1  0
 16 17  1  0
 17 18  2  0
 17 19  1  0
 19 20  1  0
 20 21  1  0
 20 22  1  0
 15 23  1  0
 23 24  2  0
 24 25  1  0
 25 26  2  0
  6 27  1  0
 27 28  2  0
 28  3  1  0
 11  7  2  0
 26 14  1  0
 26 10  1  0
  1 29  1  0
  1 30  1  0
  1 31  1  0
  4 32  1  0
  5 33  1  0
  8 34  1  0
 16 35  1  0
 19 36  1  0
 21 37  1  0
 21 38  1  0
 21 39  1  0
 22 40  1  0
 22 41  1  0
 22 42  1  0
 23 43  1  0
 24 44  1  0
 25 45  1  0
 27 46  1  0
 28 47  1  0
M  END
>  <vina_affinity>  (6) 
-9.843

$$$$
act_116543
     RDKit          3D

 65 71  0  0  0  0  0  0  0  0999 V2000
    2.8020   27.4430    9.7110 C   0  0  0  0  0  0  0  0  0  0  0  0
    2.3610   26.1410    9.3490 O   0  0  0  0  0  0  0  0  0  0  0  0
    1.8380   25.3650   10.3490 C   0  0  0  0  0  0  0  0  0  0  0  0
    2.4240   24.2330   10.8940 C   0  0  0  0  0  0  0  0  0  0  0  0
    1.7830   23.5220   11.9200 C   0  0  0  0  0  0  0  0  0  0  0  0
    0.5320   23.9460   12.4220 C   0  0  0  0  0  0  0  0  0  0  0  0
   -0.3680   23.4740   13.4330 C   0  0  0  0  0  0  0  0  0  0  0  0
   -0.3650   22.4140   14.3460 C   0  0  0  0  0  0  0  0  0  0  0  0
   -1.4090   22.1840   15.2400 C   0  0  0  0  0  0  0  0  0  0  0  0
   -2.5490   22.9920   15.2850 C   0  0  0  0  0  0  0  0  0  0  0  0
   -2.5270   24.1800   14.4850 C   0  0  0  0  0  0  0  0  0  0  0  0
   -3.5080   25.1650   14.7030 C   0  0  0  0  0  0  0  0  0  0  0  0
   -4.5360   24.9980   15.6300 C   0  0  0  0  0  0  0  0  0  0  0  0
   -4.6710   23.7790   16.3030 C   0  0  0  0  0  0  0  0  0  0  0  0
   -5.6180   23.3180   17.2550 C   0  0  0  0  0  0  0  0  0  0  0  0
   -5.3290   22.0050   17.5120 C   0  0  0  0  0  0  0  0  0  0  0  0
   -4.2720   21.6430   16.7090 N   0  0  0  0  0  0  0  0  0  0  0  0
   -4.0210   20.2490   16.4080 C   0  0  0  0  0  0  0  0  0  0  0  0
   -3.7290   22.7610   16.0860 C   0  0  0  0  0  0  0  0  0  0  0  0
   -1.4690   24.3570   13.4990 C   0  0  0  0  0  0  0  0  0  0  0  0
   -1.2640   25.2790   12.4730 N   0  0  0  0  0  0  0  0  0  0  0  0
   -2.2170   26.2640   11.9680 C   0  0  0  0  0  0  0  0  0  0  0  0
   -1.6900   27.7010   12.0910 C   0  0  0  0  0  0  0  0  0  0  0  0
   -1.7810   28.4410   10.8310 N   0  0  0  0  0  0  0  0  0  0  0  0
   -2.8970   29.3920   10.8320 C   0  0  0  0  0  0  0  0  0  0  0  0
   -2.6000   30.3320    9.6730 C   0  0  0  0  0  0  0  0  0  0  0  0
   -1.1550   30.0540    9.2830 C   0  0  0  0  0  0  0  0  0  0  0  0
   -0.5830   29.1980   10.4150 C   0  0  1  0  0  0  0  0  0  0  0  0
    0.1530   30.0590   11.4720 C   0  0  0  0  0  0  0  0  0  0  0  0
    1.1050   29.3180   12.2270 O   0  0  0  0  0  0  0  0  0  0  0  0
   -0.0400   25.0780   11.8550 C   0  0  0  0  0  0  0  0  0  0  0  0
    0.5960   25.7960   10.8230 C   0  0  0  0  0  0  0  0  0  0  0  0
   -0.9360   21.1120   16.1340 C   0  0  0  0  0  0  0  0  0  0  0  0
   -1.3850   20.7980   17.2180 O   0  0  0  0  0  0  0  0  0  0  0  0
    0.1960   20.6070   15.5850 N   0  0  0  0  0  0  0  0  0  0  0  0
    0.6710   21.4100   14.6030 C   0  0  0  0  0  0  0  0  0  0  0  0
    1.7710   21.3230   14.0990 O   0  0  0  0  0  0  0  0  0  0  0  0
    2.8310   27.5287   10.8073 H   0  0  0  0  0  0  0  0  0  0  0  0
    3.8088   27.6158    9.3029 H   0  0  0  0  0  0  0  0  0  0  0  0
    2.1074   28.1920    9.3029 H   0  0  0  0  0  0  0  0  0  0  0  0
    3.3994   23.8893   10.5191 H   0  0  0  0  0  0  0  0  0  0  0  0
    2.2602   22.6236   12.3386 H   0  0  0  0  0  0  0  0  0  0  0  0
   -3.4623   26.0982   14.1225 H   0  0  0  0  0  0  0  0  0  0  0  0
   -5.2376   25.8209   15.8312 H   0  0  0  0  0  0  0  0  0  0  0  0
   -6.4324   23.9065   17.7027 H   0  0  0  0  0  0  0  0  0  0  0  0
   -5.8488   21.3555   18.2317 H   0  0  0  0  0  0  0  0  0  0  0  0
   -3.9192   19.6839   17.3462 H   0  0  0  0  0  0  0  0  0  0  0  0
   -4.8605   19.8429   15.8246 H   0  0  0  0  0  0  0  0  0  0  0  0
   -3.0926   20.1613   15.8246 H   0  0  0  0  0  0  0  0  0  0  0  0
   -2.4181   26.0505   10.9078 H   0  0  0  0  0  0  0  0  0  0  0  0
   -3.1321   26.1882   12.5736 H   0  0  0  0  0  0  0  0  0  0  0  0
   -2.2806   28.2293   12.8539 H   0  0  0  0  0  0  0  0  0  0  0  0
   -0.6274   27.6447   12.3697 H   0  0  0  0  0  0  0  0  0  0  0  0
   -3.8523   28.8701   10.6739 H   0  0  0  0  0  0  0  0  0  0  0  0
   -2.9898   29.9258   11.7893 H   0  0  0  0  0  0  0  0  0  0  0  0
   -3.2729   30.1246    8.8279 H   0  0  0  0  0  0  0  0  0  0  0  0
   -2.7515   31.3850    9.9528 H   0  0  0  0  0  0  0  0  0  0  0  0
   -1.1126   29.5079    8.3291 H   0  0  0  0  0  0  0  0  0  0  0  0
   -0.5834   30.9838    9.1459 H   0  0  0  0  0  0  0  0  0  0  0  0
    0.2323   28.5059   10.1576 H   0  0  0  0  0  0  0  0  0  0  0  0
    0.6756   30.8775   10.9553 H   0  0  0  0  0  0  0  0  0  0  0  0
   -0.6043   30.4352   12.1755 H   0  0  0  0  0  0  0  0  0  0  0  0
    1.8350   29.0960   11.6240 H   0  0  0  0  0  0  0  0  0  0  0  0
    0.1185   26.6891   10.3936 H   0  0  0  0  0  0  0  0  0  0  0  0
    0.7920   19.9590   16.0770 H   0  0  0  0  0  0  0  0  0  0  0  0
  1  2  1  0
  2  3  1  0
  3  4  2  0
  4  5  1  0
  5  6  2  0
  6  7  1  0
  7  8  2  0
  8  9  1  0
  9 10  2  0
 10 11  1  0
 11 12  1  0
 12 13  2  0
 13 14  1  0
 14 15  1  0
 15 16  2  0
 16 17  1  0
 17 18  1  0
 17 19  1  0
 11 20  2  0
 20 21  1  0
 21 22  1  0
 22 23  1  0
 23 24  1  0
 24 25  1  0
 25 26  1  0
 26 27  1  0
 27 28  1  0
 28 29  1  0
 29 30  1  0
 21 31  1  0
 31 32  2  0
  9 33  1  0
 33 34  2  0
 33 35  1  0
 35 36  1  0
 36 37  2  0
 32  3  1  0
 31  6  1  0
 20  7  1  0
 28 24  1  0
 36  8  1  0
 19 10  1  0
 19 14  2  0
  1 38  1  0
  1 39  1  0
  1 40  1  0
  4 41  1  0
  5 42  1  0
 12 43  1  0
 13 44  1  0
 15 45  1  0
 16 46  1  0
 18 47  1  0
 18 48  1  0
 18 49  1  0
 22 50  1  0
 22 51  1  0
 23 52  1  0
 23 53  1  0
 25 54  1  0
 25 55  1  0
 26 56  1  0
 26 57  1  0
 27 58  1  0
 27 59  1  0
 28 60  1  6
 29 61  1  0
 29 62  1  0
 30 63  1  0
 32 64  1  0
 35 65  1  0
M  END
>  <vina_affinity>  (7) 
-8.865

$$$$
act_602499
     RDKit          3D

 31 33  0  0  0  0  0  0  0  0999 V2000
    4.4890   28.1830    8.5850 C   0  0  0  0  0  0  0  0  0  0  0  0
    3.9870   29.3180    7.8910 O   0  0  0  0  0  0  0  0  0  0  0  0
    2.6810   29.6520    8.1160 C   0  0  0  0  0  0  0  0  0  0  0  0
    1.9750   30.6720    7.4920 C   0  0  0  0  0  0  0  0  0  0  0  0
    0.6330   30.8950    7.8250 C   0  0  0  0  0  0  0  0  0  0  0  0
   -0.0360   30.1320    8.7700 C   0  0  0  0  0  0  0  0  0  0  0  0
   -1.3250   30.4270    9.0030 N   0  0  0  0  0  0  0  0  0  0  0  0
   -1.9230   29.6310    9.9030 C   0  0  0  0  0  0  0  0  0  0  0  0
   -3.2260   29.6930   10.2960 N   0  0  0  0  0  0  0  0  0  0  0  0
   -3.5670   28.7640   11.2110 N   0  0  0  0  0  0  0  0  0  0  0  0
   -2.4300   28.0740   11.3980 C   0  0  0  0  0  0  0  0  0  0  0  0
   -2.4030   26.9260   12.3360 C   0  0  0  0  0  0  0  0  0  0  0  0
   -1.3610   28.5890   10.6160 C   0  0  0  0  0  0  0  0  0  0  0  0
   -0.0000   28.3340   10.3930 C   0  0  0  0  0  0  0  0  0  0  0  0
    0.6430   27.3110   11.0570 O   0  0  0  0  0  0  0  0  0  0  0  0
    0.4660   26.0860   10.3430 C   0  0  0  0  0  0  0  0  0  0  0  0
    0.6800   29.0990    9.4190 C   0  0  0  0  0  0  0  0  0  0  0  0
    2.0320   28.8720    9.0730 C   0  0  0  0  0  0  0  0  0  0  0  0
    4.4137   28.3532    9.6691 H   0  0  0  0  0  0  0  0  0  0  0  0
    3.8994   27.2956    8.3114 H   0  0  0  0  0  0  0  0  0  0  0  0
    5.5422   28.0222    8.3114 H   0  0  0  0  0  0  0  0  0  0  0  0
    2.4684   31.3031    6.7382 H   0  0  0  0  0  0  0  0  0  0  0  0
    0.0894   31.7058    7.3179 H   0  0  0  0  0  0  0  0  0  0  0  0
   -3.9270   30.3470    9.9700 H   0  0  0  0  0  0  0  0  0  0  0  0
   -2.4117   27.2980   13.3711 H   0  0  0  0  0  0  0  0  0  0  0  0
   -3.2865   26.2930   12.1664 H   0  0  0  0  0  0  0  0  0  0  0  0
   -1.4907   26.3353   12.1664 H   0  0  0  0  0  0  0  0  0  0  0  0
    0.3465   25.2588   11.0581 H   0  0  0  0  0  0  0  0  0  0  0  0
   -0.4313   26.1565    9.7106 H   0  0  0  0  0  0  0  0  0  0  0  0
    1.3465   25.8997    9.7106 H   0  0  0  0  0  0  0  0  0  0  0  0
    2.5849   28.0613    9.5701 H   0  0  0  0  0  0  0  0  0  0  0  0
  1  2  1  0
  2  3  1  0
  3  4  2  0
  4  5  1  0
  5  6  2  0
  6  7  1  0
  7  8  2  0
  8  9  1  0
  9 10  1  0
 10 11  2  0
 11 12  1  0
 11 13  1  0
 13 14  2  0
 14 15  1  0
 15 16  1  0
 14 17  1  0
 17 18  2  0
 18  3  1  0
 17  6  1  0
 13  8  1  0
  1 19  1  0
  1 20  1  0
  1 21  1  0
  4 22  1  0
  5 23  1  0
  9 24  1  0
 12 25  1  0
 12 26  1  0
 12 27  1  0
 16 28  1  0
 16 29  1  0
 16 30  1  0
 18 31  1  0
M  END
>  <vina_affinity>  (8) 
-7.041

$$$$
act_490122
     RDKit          3D

 60 63  0  0  0  0  0  0  0  0999 V2000
   -1.6600   32.2090    9.7870 C   0  0  0  0  0  0  0  0  0  0  0  0
   -0.7490   31.0940    9.3400 C   0  0  0  0  0  0  0  0  0  0  0  0
   -0.0200   31.2420    8.3590 O   0  0  0  0  0  0  0  0  0  0  0  0
   -0.7850   29.9220   10.0740 N   0  0  0  0  0  0  0  0  0  0  0  0
   -1.6770   29.6800   11.2120 C   0  0  0  0  0  0  0  0  0  0  0  0
   -1.8660   28.1850   11.5370 C   0  0  0  0  0  0  0  0  0  0  0  0
   -0.5730   27.5100   11.7280 N   0  0  0  0  0  0  0  0  0  0  0  0
   -0.4640   26.3470   12.4750 C   0  0  0  0  0  0  0  0  0  0  0  0
    0.0810   25.1690   11.9530 C   0  0  0  0  0  0  0  0  0  0  0  0
    0.1860   23.9950   12.7160 C   0  0  0  0  0  0  0  0  0  0  0  0
   -0.2590   23.9400   14.0420 C   0  0  0  0  0  0  0  0  0  0  0  0
   -0.1190   22.7440   14.7490 N   0  0  0  0  0  0  0  0  0  0  0  0
   -0.8690   22.1070   15.7330 C   0  0  0  0  0  0  0  0  0  0  0  0
   -0.3950   21.8950   16.9690 N   0  0  0  0  0  0  0  0  0  0  0  0
   -1.2040   21.2820   17.8500 C   0  0  0  0  0  0  0  0  0  0  0  0
   -2.4710   20.8610   17.5440 C   0  0  0  0  0  0  0  0  0  0  0  0
   -2.8680   21.1020   16.2510 C   0  0  0  0  0  0  0  0  0  0  0  0
   -4.1940   20.7310   15.7840 C   0  0  0  0  0  0  0  0  0  0  0  0
   -4.5710   19.5800   15.1180 C   0  0  0  0  0  0  0  0  0  0  0  0
   -5.9030   19.5690   14.8370 N   0  0  0  0  0  0  0  0  0  0  0  0
   -6.3770   20.6930   15.3270 C   0  0  0  0  0  0  0  0  0  0  0  0
   -7.8100   21.0920   15.2750 C   0  0  0  0  0  0  0  0  0  0  0  0
   -5.3670   21.4590   15.8940 N   0  0  0  0  0  0  0  0  0  0  0  0
   -5.5680   22.8010   16.4410 C   0  0  0  0  0  0  0  0  0  0  0  0
   -4.7610   23.9050   15.7540 C   0  0  0  0  0  0  0  0  0  0  0  0
   -5.4240   22.8380   17.9630 C   0  0  0  0  0  0  0  0  0  0  0  0
   -2.0940   21.7200   15.3410 N   0  0  0  0  0  0  0  0  0  0  0  0
   -0.8030   25.1060   14.5710 C   0  0  0  0  0  0  0  0  0  0  0  0
   -0.9040   26.2800   13.8050 C   0  0  0  0  0  0  0  0  0  0  0  0
    0.5740   28.0090   10.9470 C   0  0  0  0  0  0  0  0  0  0  0  0
    0.1260   28.8310    9.7230 C   0  0  0  0  0  0  0  0  0  0  0  0
   -1.6870   32.2421   10.8862 H   0  0  0  0  0  0  0  0  0  0  0  0
   -1.2833   33.1675    9.4005 H   0  0  0  0  0  0  0  0  0  0  0  0
   -2.6744   32.0310    9.4005 H   0  0  0  0  0  0  0  0  0  0  0  0
   -1.2552   30.1783   12.0973 H   0  0  0  0  0  0  0  0  0  0  0  0
   -2.6650   30.0798   10.9399 H   0  0  0  0  0  0  0  0  0  0  0  0
   -2.4584   28.0912   12.4591 H   0  0  0  0  0  0  0  0  0  0  0  0
   -2.3834   27.7093   10.6908 H   0  0  0  0  0  0  0  0  0  0  0  0
    0.4383   25.1623   10.9127 H   0  0  0  0  0  0  0  0  0  0  0  0
    0.6287   23.0968   12.2607 H   0  0  0  0  0  0  0  0  0  0  0  0
    0.6530   22.1470   14.4930 H   0  0  0  0  0  0  0  0  0  0  0  0
   -0.8292   21.1094   18.8697 H   0  0  0  0  0  0  0  0  0  0  0  0
   -3.1226   20.3664   18.2793 H   0  0  0  0  0  0  0  0  0  0  0  0
   -3.8778   18.7699   14.8474 H   0  0  0  0  0  0  0  0  0  0  0  0
   -8.1979   21.2000   16.2986 H   0  0  0  0  0  0  0  0  0  0  0  0
   -7.9047   22.0507   14.7440 H   0  0  0  0  0  0  0  0  0  0  0  0
   -8.3865   20.3202   14.7440 H   0  0  0  0  0  0  0  0  0  0  0  0
   -6.6155   23.0379   16.2029 H   0  0  0  0  0  0  0  0  0  0  0  0
   -4.2929   24.5454   16.5161 H   0  0  0  0  0  0  0  0  0  0  0  0
   -3.9799   23.4516   15.1260 H   0  0  0  0  0  0  0  0  0  0  0  0
   -5.4301   24.5116   15.1260 H   0  0  0  0  0  0  0  0  0  0  0  0
   -6.3892   22.5900   18.4288 H   0  0  0  0  0  0  0  0  0  0  0  0
   -4.6661   22.1054   18.2775 H   0  0  0  0  0  0  0  0  0  0  0  0
   -5.1131   23.8452   18.2775 H   0  0  0  0  0  0  0  0  0  0  0  0
   -1.1617   25.1092   15.6109 H   0  0  0  0  0  0  0  0  0  0  0  0
   -1.3435   27.1776   14.2646 H   0  0  0  0  0  0  0  0  0  0  0  0
    1.1943   28.6460   11.5947 H   0  0  0  0  0  0  0  0  0  0  0  0
    1.1408   27.1394   10.5829 H   0  0  0  0  0  0  0  0  0  0  0  0
    1.0177   29.2590    9.2418 H   0  0  0  0  0  0  0  0  0  0  0  0
   -0.4158   28.1516    9.0485 H   0  0  0  0  0  0  0  0  0  0  0  0
  1  2  1  0
  2  3  2  0
  2  4  1  0
  4  5  1  0
  5  6  1  0
  6  7  1  0
  7  8  1  0
  8  9  2  0
  9 10  1  0
 10 11  2  0
 11 12  1  0
 12 13  1  0
 13 14  2  0
 14 15  1  0
 15 16  2  0
 16 17  1  0
 17 18  1  0
 18 19  2  0
 19 20  1  0
 20 21  2  0
 21 22  1  0
 21 23  1  0
 23 24  1  0
 24 25  1  0
 24 26  1  0
 17 27  2  0
 11 28  1  0
 28 29  2  0
  7 30  1  0
 30 31  1  0
 31  4  1  0
 29  8  1  0
 27 13  1  0
 23 18  1  0
  1 32  1  0
  1 33  1  0
  1 34  1  0
  5 35  1  0
  5 36  1  0
  6 37  1  0
  6 38  1  0
  9 39  1  0
 10 40  1  0
 12 41  1  0
 15 42  1  0
 16 43  1  0
 19 44  1  0
 22 45  1  0
 22 46  1  0
 22 47  1  0
 24 48  1  0
 25 49  1  0
 25 50  1  0
 25 51  1  0
 26 52  1  0
 26 53  1  0
 26 54  1  0
 28 55  1  0
 29 56  1  0
 30 57  1  0
 30 58  1  0
 31 59  1  0
 31 60  1  0
M  END
>  <vina_affinity>  (9) 
-8.399

$$$$
act_514814
     RDKit          3D

 57 60  0  0  0  0  0  0  0  0999 V2000
    6.7290   26.3190    1.7480 C   0  0  0  0  0  0  0  0  0  0  0  0
    7.4280   27.1530    2.6630 O   0  0  0  0  0  0  0  0  0  0  0  0
    8.6370   26.5720    3.1590 C   0  0  0  0  0  0  0  0  0  0  0  0
    8.4170   25.2970    3.9880 C   0  0  0  0  0  0  0  0  0  0  0  0
    7.9320   25.6100    5.3680 N   0  0  0  0  0  0  0  0  0  0  0  0
    8.9950   25.5680    6.3930 C   0  0  0  0  0  0  0  0  0  0  0  0
    6.4380   24.9120    5.8230 S   0  0  0  0  0  0  0  0  0  0  0  0
    6.6730   24.0110    6.9300 O   0  0  0  0  0  0  0  0  0  0  0  0
    5.7740   24.4520    4.6210 O   0  0  0  0  0  0  0  0  0  0  0  0
    5.5180   26.3020    6.4480 C   0  0  0  0  0  0  0  0  0  0  0  0
    5.5800   26.6220    7.8040 C   0  0  0  0  0  0  0  0  0  0  0  0
    4.8650   27.7230    8.2900 C   0  0  0  0  0  0  0  0  0  0  0  0
    4.1040   28.5310    7.4370 C   0  0  0  0  0  0  0  0  0  0  0  0
    3.3560   29.6310    7.8680 N   0  0  0  0  0  0  0  0  0  0  0  0
    2.0170   29.8290    8.1880 C   0  0  0  0  0  0  0  0  0  0  0  0
    1.1930   30.5420    7.4060 N   0  0  0  0  0  0  0  0  0  0  0  0
   -0.0830   30.6790    7.8070 C   0  0  0  0  0  0  0  0  0  0  0  0
   -0.5750   30.1250    8.9600 C   0  0  0  0  0  0  0  0  0  0  0  0
    0.3330   29.4020    9.6940 C   0  0  0  0  0  0  0  0  0  0  0  0
   -0.0070   28.7590   10.9490 C   0  0  0  0  0  0  0  0  0  0  0  0
   -0.4380   29.3170   12.1400 C   0  0  0  0  0  0  0  0  0  0  0  0
   -0.6990   28.3590   13.0860 N   0  0  0  0  0  0  0  0  0  0  0  0
   -0.3950   27.2090   12.5170 C   0  0  0  0  0  0  0  0  0  0  0  0
   -0.5260   25.8720   13.1460 C   0  0  0  0  0  0  0  0  0  0  0  0
    0.0760   27.4190   11.2440 N   0  0  0  0  0  0  0  0  0  0  0  0
    0.5620   26.3510   10.3350 C   0  0  0  0  0  0  0  0  0  0  0  0
    1.1880   25.0770   10.8550 C   0  0  0  0  0  0  0  0  0  0  0  0
    2.0320   26.0680   10.1180 C   0  0  0  0  0  0  0  0  0  0  0  0
    1.6240   29.2580    9.3360 N   0  0  0  0  0  0  0  0  0  0  0  0
    4.0780   28.1990    6.0710 C   0  0  0  0  0  0  0  0  0  0  0  0
    4.7850   27.1010    5.5710 C   0  0  0  0  0  0  0  0  0  0  0  0
    6.1200   25.5924    2.3058 H   0  0  0  0  0  0  0  0  0  0  0  0
    6.0747   26.9366    1.1151 H   0  0  0  0  0  0  0  0  0  0  0  0
    7.4514   25.7828    1.1151 H   0  0  0  0  0  0  0  0  0  0  0  0
    9.2790   26.3218    2.3015 H   0  0  0  0  0  0  0  0  0  0  0  0
    9.0984   27.3136    3.8277 H   0  0  0  0  0  0  0  0  0  0  0  0
    7.6701   24.6675    3.4821 H   0  0  0  0  0  0  0  0  0  0  0  0
    9.3808   24.7739    4.0741 H   0  0  0  0  0  0  0  0  0  0  0  0
    8.5398   25.5860    7.3942 H   0  0  0  0  0  0  0  0  0  0  0  0
    9.5829   24.6459    6.2740 H   0  0  0  0  0  0  0  0  0  0  0  0
    9.6538   26.4408    6.2740 H   0  0  0  0  0  0  0  0  0  0  0  0
    6.1879   26.0121    8.4884 H   0  0  0  0  0  0  0  0  0  0  0  0
    4.9019   27.9580    9.3640 H   0  0  0  0  0  0  0  0  0  0  0  0
    3.8620   30.4840    8.0620 H   0  0  0  0  0  0  0  0  0  0  0  0
   -0.7675   31.2661    7.1771 H   0  0  0  0  0  0  0  0  0  0  0  0
   -1.6215   30.2504    9.2747 H   0  0  0  0  0  0  0  0  0  0  0  0
   -0.5568   30.3977   12.3075 H   0  0  0  0  0  0  0  0  0  0  0  0
   -0.5155   25.9792   14.2407 H   0  0  0  0  0  0  0  0  0  0  0  0
   -1.4737   25.4103   12.8319 H   0  0  0  0  0  0  0  0  0  0  0  0
    0.3140   25.2351   12.8319 H   0  0  0  0  0  0  0  0  0  0  0  0
   -0.2877   26.6001    9.6824 H   0  0  0  0  0  0  0  0  0  0  0  0
    1.3264   24.9353   11.9370 H   0  0  0  0  0  0  0  0  0  0  0  0
    0.9730   24.0043   10.7404 H   0  0  0  0  0  0  0  0  0  0  0  0
    2.7897   26.6539   10.6590 H   0  0  0  0  0  0  0  0  0  0  0  0
    2.6921   26.0234    9.2392 H   0  0  0  0  0  0  0  0  0  0  0  0
    3.4875   28.8177    5.3792 H   0  0  0  0  0  0  0  0  0  0  0  0
    4.7632   26.8696    4.4958 H   0  0  0  0  0  0  0  0  0  0  0  0
  1  2  1  0
  2  3  1  0
  3  4  1  0
  4  5  1  0
  5  6  1  0
  5  7  1  0
  7  8  2  0
  7  9  2  0
  7 10  1  0
 10 11  2  0
 11 12  1  0
 12 13  2  0
 13 14  1  0
 14 15  1  0
 15 16  2  0
 16 17  1  0
 17 18  2  0
 18 19  1  0
 19 20  1  0
 20 21  2  0
 21 22  1  0
 22 23  2  0
 23 24  1  0
 23 25  1  0
 25 26  1  0
 26 27  1  0
 27 28  1  0
 19 29  2  0
 13 30  1  0
 30 31  2  0
 31 10  1  0
 29 15  1  0
 25 20  1  0
 28 26  1  0
  1 32  1  0
  1 33  1  0
  1 34  1  0
  3 35  1  0
  3 36  1  0
  4 37  1  0
  4 38  1  0
  6 39  1  0
  6 40  1  0
  6 41  1  0
 11 42  1  0
 12 43  1  0
 14 44  1  0
 17 45  1  0
 18 46  1  0
 21 47  1  0
 24 48  1  0
 24 49  1  0
 24 50  1  0
 26 51  1  0
 27 52  1  0
 27 53  1  0
 28 54  1  0
 28 55  1  0
 30 56  1  0
 31 57  1  0
M  END
>  <vina_affinity>  (10) 
-7.413

$$$$
act_226694
     RDKit          3D

 51 54  0  0  0  0  0  0  0  0999 V2000
    6.7390   24.8580    4.9890 O   0  0  0  0  0  0  0  0  0  0  0  0
    6.7570   25.2800    6.3720 S   0  0  0  0  0  0  0  0  0  0  0  0
    6.5870   24.3420    7.4590 O   0  0  0  0  0  0  0  0  0  0  0  0
    8.2030   26.0710    6.6530 N   0  0  0  0  0  0  0  0  0  0  0  0
    9.3960   25.7170    5.8840 C   0  0  0  0  0  0  0  0  0  0  0  0
   10.0610   24.4530    6.4390 C   0  0  0  0  0  0  0  0  0  0  0  0
   11.2870   24.7580    7.1060 O   0  0  0  0  0  0  0  0  0  0  0  0
   12.2260   23.6850    7.0450 C   0  0  0  0  0  0  0  0  0  0  0  0
   12.9190   23.5420    8.3960 C   0  0  0  0  0  0  0  0  0  0  0  0
   13.1960   24.8180    8.9610 O   0  0  0  0  0  0  0  0  0  0  0  0
    5.5720   26.5810    6.5910 C   0  0  0  0  0  0  0  0  0  0  0  0
    4.8790   27.0890    5.4890 C   0  0  0  0  0  0  0  0  0  0  0  0
    3.9390   28.1040    5.6790 C   0  0  0  0  0  0  0  0  0  0  0  0
    3.6770   28.5980    6.9620 C   0  0  0  0  0  0  0  0  0  0  0  0
    2.7430   29.6260    7.1440 N   0  0  0  0  0  0  0  0  0  0  0  0
    1.8700   29.4300    8.0870 C   0  0  0  0  0  0  0  0  0  0  0  0
    0.8760   30.4570    8.3280 C   0  0  0  0  0  0  0  0  0  0  0  0
    0.9840   31.7480    7.8210 C   0  0  0  0  0  0  0  0  0  0  0  0
    1.9200   32.3180    7.0700 O   0  0  0  0  0  0  0  0  0  0  0  0
   -0.1000   32.4880    8.2110 N   0  0  0  0  0  0  0  0  0  0  0  0
   -0.9420   31.7230    8.9740 C   0  0  0  0  0  0  0  0  0  0  0  0
   -2.1600   32.0060    9.6000 C   0  0  0  0  0  0  0  0  0  0  0  0
   -2.7830   30.9660   10.3280 C   0  0  0  0  0  0  0  0  0  0  0  0
   -2.1990   29.6830   10.4210 C   0  0  0  0  0  0  0  0  0  0  0  0
   -2.6880   28.5750   11.0910 N   0  0  0  0  0  0  0  0  0  0  0  0
   -1.8440   27.5770   10.9310 C   0  0  0  0  0  0  0  0  0  0  0  0
   -0.4480   27.9110    9.9860 S   0  0  0  0  0  0  0  0  0  0  0  0
   -0.9910   29.4710    9.7750 C   0  0  0  0  0  0  0  0  0  0  0  0
   -0.3620   30.4650    9.0600 C   0  0  0  0  0  0  0  0  0  0  0  0
    4.3800   28.0830    8.0560 C   0  0  0  0  0  0  0  0  0  0  0  0
    5.3230   27.0680    7.8770 C   0  0  0  0  0  0  0  0  0  0  0  0
    8.2980   26.4890    7.5780 H   0  0  0  0  0  0  0  0  0  0  0  0
    9.1082   25.5404    4.8371 H   0  0  0  0  0  0  0  0  0  0  0  0
   10.1142   26.5472    5.9553 H   0  0  0  0  0  0  0  0  0  0  0  0
    9.3757   23.9720    7.1524 H   0  0  0  0  0  0  0  0  0  0  0  0
   10.2833   23.7810    5.5970 H   0  0  0  0  0  0  0  0  0  0  0  0
   11.6999   22.7502    6.8014 H   0  0  0  0  0  0  0  0  0  0  0  0
   12.9753   23.8958    6.2678 H   0  0  0  0  0  0  0  0  0  0  0  0
   12.2649   22.9799    9.0788 H   0  0  0  0  0  0  0  0  0  0  0  0
   13.8696   23.0083    8.2491 H   0  0  0  0  0  0  0  0  0  0  0  0
   12.5390   24.9740    9.6610 H   0  0  0  0  0  0  0  0  0  0  0  0
    5.0722   26.6930    4.4811 H   0  0  0  0  0  0  0  0  0  0  0  0
    3.4005   28.5183    4.8139 H   0  0  0  0  0  0  0  0  0  0  0  0
    1.8852   28.5081    8.6869 H   0  0  0  0  0  0  0  0  0  0  0  0
    2.5130   32.7880    7.7010 H   0  0  0  0  0  0  0  0  0  0  0  0
   -0.2400   33.4570    7.9630 H   0  0  0  0  0  0  0  0  0  0  0  0
   -2.6179   33.0036    9.5286 H   0  0  0  0  0  0  0  0  0  0  0  0
   -3.7414   31.1599   10.8319 H   0  0  0  0  0  0  0  0  0  0  0  0
   -2.0221   26.5871   11.3763 H   0  0  0  0  0  0  0  0  0  0  0  0
    4.1891   28.4798    9.0640 H   0  0  0  0  0  0  0  0  0  0  0  0
    5.8649   26.6556    8.7409 H   0  0  0  0  0  0  0  0  0  0  0  0
  1  2  2  0
  2  3  2  0
  2  4  1  0
  4  5  1  0
  5  6  1  0
  6  7  1  0
  7  8  1  0
  8  9  1  0
  9 10  1  0
  2 11  1  0
 11 12  2  0
 12 13  1  0
 13 14  2  0
 14 15  1  0
 15 16  2  0
 16 17  1  0
 17 18  2  0
 18 19  1  0
 18 20  1  0
 20 21  1  0
 21 22  2  0
 22 23  1  0
 23 24  2  0
 24 25  1  0
 25 26  2  0
 26 27  1  0
 27 28  1  0
 28 29  2  0
 14 30  1  0
 30 31  2  0
 31 11  1  0
 29 17  1  0
 29 21  1  0
 28 24  1  0
  4 32  1  0
  5 33  1  0
  5 34  1  0
  6 35  1  0
  6 36  1  0
  8 37  1  0
  8 38  1  0
  9 39  1  0
  9 40  1  0
 10 41  1  0
 12 42  1  0
 13 43  1  0
 16 44  1  0
 19 45  1  0
 20 46  1  0
 22 47  1  0
 23 48  1  0
 26 49  1  0
 30 50  1  0
 31 51  1  0
M  END
>  <vina_affinity>  (11) 
-8.229

$$$$
act_147969
     RDKit          3D

 60 63  0  0  0  0  0  0  0  0999 V2000
   -2.3090   32.4680   10.6280 C   0  0  0  0  0  0  0  0  0  0  0  0
   -2.2560   31.0520   10.0540 C   0  0  0  0  0  0  0  0  0  0  0  0
   -3.3780   30.8180    9.0400 C   0  0  0  0  0  0  0  0  0  0  0  0
   -0.9430   30.7590    9.4980 N   0  0  0  0  0  0  0  0  0  0  0  0
   -0.2430   31.5220    8.6010 C   0  0  0  0  0  0  0  0  0  0  0  0
    0.9220   30.9870    8.3040 N   0  0  0  0  0  0  0  0  0  0  0  0
    0.9900   29.8340    9.0630 C   0  0  0  0  0  0  0  0  0  0  0  0
    1.9650   28.8320    9.2120 C   0  0  0  0  0  0  0  0  0  0  0  0
    3.2080   28.7840    8.5820 N   0  0  0  0  0  0  0  0  0  0  0  0
    3.8960   27.5060    8.5780 C   0  0  0  0  0  0  0  0  0  0  0  0
    4.4450   27.2530    7.1920 C   0  0  0  0  0  0  0  0  0  0  0  0
    5.4100   26.2630    6.9710 C   0  0  0  0  0  0  0  0  0  0  0  0
    5.9270   26.0480    5.6890 C   0  0  0  0  0  0  0  0  0  0  0  0
    5.5000   26.8260    4.6020 C   0  0  0  0  0  0  0  0  0  0  0  0
    6.0470   26.5750    3.2620 C   0  0  0  0  0  0  0  0  0  0  0  0
    6.0280   27.4030    2.1530 C   0  0  0  0  0  0  0  0  0  0  0  0
    6.6450   26.8120    1.0120 C   0  0  0  0  0  0  0  0  0  0  0  0
    7.1080   25.5440    1.2790 C   0  0  0  0  0  0  0  0  0  0  0  0
    6.8020   25.0760    2.8930 S   0  0  0  0  0  0  0  0  0  0  0  0
    4.5370   27.8190    4.8280 C   0  0  0  0  0  0  0  0  0  0  0  0
    4.0200   28.0350    6.1100 C   0  0  0  0  0  0  0  0  0  0  0  0
    1.6850   27.8060   10.0590 N   0  0  0  0  0  0  0  0  0  0  0  0
    0.5170   27.7510   10.7370 C   0  0  0  0  0  0  0  0  0  0  0  0
    0.3130   26.6930   11.6070 N   0  0  0  0  0  0  0  0  0  0  0  0
   -0.5070   26.8870   12.8080 C   0  0  0  0  0  0  0  0  0  0  0  0
   -1.8280   26.1030   12.7250 C   0  0  0  0  0  0  0  0  0  0  0  0
   -2.7390   26.6750   11.7880 O   0  0  0  0  0  0  0  0  0  0  0  0
    0.4740   25.3370   11.0850 C   0  0  0  0  0  0  0  0  0  0  0  0
    1.6930   24.6140   11.6720 C   0  0  0  0  0  0  0  0  0  0  0  0
    2.7380   25.5410   11.9600 O   0  0  0  0  0  0  0  0  0  0  0  0
   -0.4550   28.6760   10.6480 N   0  0  0  0  0  0  0  0  0  0  0  0
   -0.1640   29.6740    9.8040 C   0  0  0  0  0  0  0  0  0  0  0  0
   -2.3071   32.4185   11.7269 H   0  0  0  0  0  0  0  0  0  0  0  0
   -1.4315   33.0357   10.2851 H   0  0  0  0  0  0  0  0  0  0  0  0
   -3.2265   32.9686   10.2851 H   0  0  0  0  0  0  0  0  0  0  0  0
   -2.4217   30.3454   10.8806 H   0  0  0  0  0  0  0  0  0  0  0  0
   -4.3195   30.6216    9.5738 H   0  0  0  0  0  0  0  0  0  0  0  0
   -3.4938   31.7113    8.4087 H   0  0  0  0  0  0  0  0  0  0  0  0
   -3.1271   29.9529    8.4087 H   0  0  0  0  0  0  0  0  0  0  0  0
   -0.6109   32.4690    8.1793 H   0  0  0  0  0  0  0  0  0  0  0  0
    3.7630   29.5730    8.8950 H   0  0  0  0  0  0  0  0  0  0  0  0
    4.7217   27.5283    9.3044 H   0  0  0  0  0  0  0  0  0  0  0  0
    3.1963   26.7038    8.8552 H   0  0  0  0  0  0  0  0  0  0  0  0
    5.7645   25.6493    7.8122 H   0  0  0  0  0  0  0  0  0  0  0  0
    6.6775   25.2594    5.5311 H   0  0  0  0  0  0  0  0  0  0  0  0
    5.5842   28.4095    2.1522 H   0  0  0  0  0  0  0  0  0  0  0  0
    6.7396   27.3097    0.0356 H   0  0  0  0  0  0  0  0  0  0  0  0
    7.6155   24.9067    0.5399 H   0  0  0  0  0  0  0  0  0  0  0  0
    4.1838   28.4353    3.9881 H   0  0  0  0  0  0  0  0  0  0  0  0
    3.2728   28.8263    6.2699 H   0  0  0  0  0  0  0  0  0  0  0  0
    0.0585   26.5415   13.6859 H   0  0  0  0  0  0  0  0  0  0  0  0
   -0.7470   27.9573   12.8913 H   0  0  0  0  0  0  0  0  0  0  0  0
   -1.6075   25.0698   12.4185 H   0  0  0  0  0  0  0  0  0  0  0  0
   -2.3014   26.1353   13.7174 H   0  0  0  0  0  0  0  0  0  0  0  0
   -2.9550   25.9530   11.1590 H   0  0  0  0  0  0  0  0  0  0  0  0
   -0.4288   24.7575   11.3281 H   0  0  0  0  0  0  0  0  0  0  0  0
    0.6281   25.4168    9.9988 H   0  0  0  0  0  0  0  0  0  0  0  0
    1.3975   24.1030   12.6002 H   0  0  0  0  0  0  0  0  0  0  0  0
    2.0603   23.8844   10.9353 H   0  0  0  0  0  0  0  0  0  0  0  0
    2.3130   26.4040   12.1210 H   0  0  0  0  0  0  0  0  0  0  0  0
  1  2  1  0
  2  3  1  0
  2  4  1  0
  4  5  1  0
  5  6  2  0
  6  7  1  0
  7  8  2  0
  8  9  1  0
  9 10  1  0
 10 11  1  0
 11 12  2  0
 12 13  1  0
 13 14  2  0
 14 15  1  0
 15 16  2  0
 16 17  1  0
 17 18  2  0
 18 19  1  0
 14 20  1  0
 20 21  2  0
  8 22  1  0
 22 23  2  0
 23 24  1  0
 24 25  1  0
 25 26  1  0
 26 27  1  0
 24 28  1  0
 28 29  1  0
 29 30  1  0
 23 31  1  0
 31 32  2  0
 32  4  1  0
 32  7  1  0
 21 11  1  0
 19 15  1  0
  1 33  1  0
  1 34  1  0
  1 35  1  0
  2 36  1  0
  3 37  1  0
  3 38  1  0
  3 39  1  0
  5 40  1  0
  9 41  1  0
 10 42  1  0
 10 43  1  0
 12 44  1  0
 13 45  1  0
 16 46  1  0
 17 47  1  0
 18 48  1  0
 20 49  1  0
 21 50  1  0
 25 51  1  0
 25 52  1  0
 26 53  1  0
 26 54  1  0
 27 55  1  0
 28 56  1  0
 28 57  1  0
 29 58  1  0
 29 59  1  0
 30 60  1  0
M  END
>  <vina_affinity>  (12) 
-7.622

$$$$
act_475959
     RDKit          3D

 60 65  0  0  0  0  0  0  0  0999 V2000
    4.6790   28.1370    8.2120 C   0  0  0  0  0  0  0  0  0  0  0  0
    3.9100   29.3050    7.9480 O   0  0  0  0  0  0  0  0  0  0  0  0
    2.6280   29.3180    8.4340 C   0  0  0  0  0  0  0  0  0  0  0  0
    2.1290   28.5250    9.4700 C   0  0  0  0  0  0  0  0  0  0  0  0
    0.7840   28.6300    9.8770 C   0  0  0  0  0  0  0  0  0  0  0  0
    0.2630   27.7930   10.9690 C   0  0  0  0  0  0  0  0  0  0  0  0
    0.3970   26.3960   10.9210 C   0  0  0  0  0  0  0  0  0  0  0  0
   -0.0900   25.5730   11.9480 C   0  0  0  0  0  0  0  0  0  0  0  0
   -0.7300   26.1650   13.0490 C   0  0  0  0  0  0  0  0  0  0  0  0
   -1.3390   25.7180   14.2490 C   0  0  0  0  0  0  0  0  0  0  0  0
   -1.4770   24.2380   14.7190 C   0  0  0  0  0  0  0  0  0  0  0  0
   -2.5990   23.6020   14.9710 N   0  0  0  0  0  0  0  0  0  0  0  0
   -2.2330   22.3210   15.3540 C   0  0  0  0  0  0  0  0  0  0  0  0
   -3.0430   21.2090   15.7290 C   0  0  0  0  0  0  0  0  0  0  0  0
   -4.4630   21.1840   15.8270 N   0  0  0  0  0  0  0  0  0  0  0  0
   -5.0870   19.8510   15.6800 C   0  0  0  0  0  0  0  0  0  0  0  0
   -6.6280   19.9870   15.6370 C   0  0  0  0  0  0  0  0  0  0  0  0
   -7.1740   20.6640   16.8360 N   0  0  0  0  0  0  0  0  0  0  0  0
   -8.6220   20.8220   16.7250 C   0  0  0  0  0  0  0  0  0  0  0  0
   -6.5130   21.9800   16.9890 C   0  0  0  0  0  0  0  0  0  0  0  0
   -4.9680   21.8830   17.0330 C   0  0  0  0  0  0  0  0  0  0  0  0
   -2.3320   20.0340   16.0810 C   0  0  0  0  0  0  0  0  0  0  0  0
   -0.9370   19.9430   16.0400 C   0  0  0  0  0  0  0  0  0  0  0  0
   -0.1580   21.0290   15.6510 C   0  0  0  0  0  0  0  0  0  0  0  0
   -0.8430   22.1970   15.3220 C   0  0  0  0  0  0  0  0  0  0  0  0
   -0.3960   23.4280   14.9210 N   0  0  0  0  0  0  0  0  0  0  0  0
   -1.8180   26.7290   14.9890 N   0  0  0  0  0  0  0  0  0  0  0  0
   -1.5160   27.8180   14.2580 N   0  0  0  0  0  0  0  0  0  0  0  0
   -0.8580   27.5470   13.0870 C   0  0  0  0  0  0  0  0  0  0  0  0
   -0.3770   28.3870   12.0750 C   0  0  0  0  0  0  0  0  0  0  0  0
   -0.0520   29.5490    9.2190 C   0  0  0  0  0  0  0  0  0  0  0  0
    0.4390   30.3490    8.1870 C   0  0  0  0  0  0  0  0  0  0  0  0
    1.7680   30.2260    7.8080 C   0  0  0  0  0  0  0  0  0  0  0  0
    2.2260   31.0200    6.7920 O   0  0  0  0  0  0  0  0  0  0  0  0
    4.7713   27.9968    9.2991 H   0  0  0  0  0  0  0  0  0  0  0  0
    4.1799   27.2618    7.7705 H   0  0  0  0  0  0  0  0  0  0  0  0
    5.6802   28.2496    7.7705 H   0  0  0  0  0  0  0  0  0  0  0  0
    2.7946   27.8093    9.9747 H   0  0  0  0  0  0  0  0  0  0  0  0
    0.8965   25.9350   10.0562 H   0  0  0  0  0  0  0  0  0  0  0  0
    0.0278   24.4808   11.8915 H   0  0  0  0  0  0  0  0  0  0  0  0
   -4.7366   19.3862   14.7466 H   0  0  0  0  0  0  0  0  0  0  0  0
   -4.8047   19.2246   16.5390 H   0  0  0  0  0  0  0  0  0  0  0  0
   -6.9055   20.5699   14.7464 H   0  0  0  0  0  0  0  0  0  0  0  0
   -7.0512   18.9721   15.6059 H   0  0  0  0  0  0  0  0  0  0  0  0
   -9.0638   20.8702   17.7312 H   0  0  0  0  0  0  0  0  0  0  0  0
   -8.8489   21.7502   16.1801 H   0  0  0  0  0  0  0  0  0  0  0  0
   -9.0437   19.9645   16.1801 H   0  0  0  0  0  0  0  0  0  0  0  0
   -6.7996   22.6166   16.1389 H   0  0  0  0  0  0  0  0  0  0  0  0
   -6.8424   22.4025   17.9497 H   0  0  0  0  0  0  0  0  0  0  0  0
   -4.5415   22.8962   17.0707 H   0  0  0  0  0  0  0  0  0  0  0  0
   -4.6699   21.3158   17.9271 H   0  0  0  0  0  0  0  0  0  0  0  0
   -2.9051   19.1516   16.4018 H   0  0  0  0  0  0  0  0  0  0  0  0
   -0.4477   18.9983   16.3196 H   0  0  0  0  0  0  0  0  0  0  0  0
    0.9394   20.9684   15.6057 H   0  0  0  0  0  0  0  0  0  0  0  0
    0.5610   23.7180   14.7850 H   0  0  0  0  0  0  0  0  0  0  0  0
   -1.7860   28.7280   14.6130 H   0  0  0  0  0  0  0  0  0  0  0  0
   -0.4953   29.4786   12.1415 H   0  0  0  0  0  0  0  0  0  0  0  0
   -1.1058   29.6383    9.5215 H   0  0  0  0  0  0  0  0  0  0  0  0
   -0.2199   31.0690    7.6796 H   0  0  0  0  0  0  0  0  0  0  0  0
    1.5900   31.7620    6.7470 H   0  0  0  0  0  0  0  0  0  0  0  0
  1  2  1  0
  2  3  1  0
  3  4  2  0
  4  5  1  0
  5  6  1  0
  6  7  2  0
  7  8  1  0
  8  9  2  0
  9 10  1  0
 10 11  1  0
 11 12  2  0
 12 13  1  0
 13 14  2  0
 14 15  1  0
 15 16  1  0
 16 17  1  0
 17 18  1  0
 18 19  1  0
 18 20  1  0
 20 21  1  0
 14 22  1  0
 22 23  2  0
 23 24  1  0
 24 25  2  0
 25 26  1  0
 10 27  2  0
 27 28  1  0
 28 29  1  0
 29 30  2  0
  5 31  2  0
 31 32  1  0
 32 33  2  0
 33 34  1  0
 33  3  1  0
 30  6  1  0
 29  9  1  0
 26 11  1  0
 25 13  1  0
 21 15  1  0
  1 35  1  0
  1 36  1  0
  1 37  1  0
  4 38  1  0
  7 39  1  0
  8 40  1  0
 16 41  1  0
 16 42  1  0
 17 43  1  0
 17 44  1  0
 19 45  1  0
 19 46  1  0
 19 47  1  0
 20 48  1  0
 20 49  1  0
 21 50  1  0
 21 51  1  0
 22 52  1  0
 23 53  1  0
 24 54  1  0
 26 55  1  0
 28 56  1  0
 30 57  1  0
 31 58  1  0
 32 59  1  0
 34 60  1  0
M  END
>  <vina_affinity>  (13) 
-9.829

$$$$
act_248781
     RDKit          3D

 35 38  0  0  0  0  0  0  0  0999 V2000
   -1.7890   26.3240   12.6070 C   0  0  0  0  0  0  0  0  0  0  0  0
   -1.6180   27.7840   12.2690 C   0  0  0  0  0  0  0  0  0  0  0  0
   -1.1450   28.5690   13.0840 O   0  0  0  0  0  0  0  0  0  0  0  0
   -2.0710   28.0900   11.0010 N   0  0  0  0  0  0  0  0  0  0  0  0
   -2.0650   29.3510   10.3680 C   0  0  0  0  0  0  0  0  0  0  0  0
   -3.0850   30.3030   10.4690 C   0  0  0  0  0  0  0  0  0  0  0  0
   -3.0000   31.5510    9.8010 C   0  0  0  0  0  0  0  0  0  0  0  0
   -1.8950   31.8900    9.0110 C   0  0  0  0  0  0  0  0  0  0  0  0
   -0.8950   30.9540    8.9120 C   0  0  0  0  0  0  0  0  0  0  0  0
   -0.9820   29.7050    9.5810 C   0  0  0  0  0  0  0  0  0  0  0  0
    0.2610   28.9150    9.2740 C   0  0  0  0  0  0  0  0  0  0  0  0
    0.5080   27.7970    9.6900 O   0  0  0  0  0  0  0  0  0  0  0  0
    1.0410   29.7700    8.4100 C   0  0  0  0  0  0  0  0  0  0  0  0
    2.2370   29.9000    7.6840 C   0  0  0  0  0  0  0  0  0  0  0  0
    3.3490   28.9640    7.5290 C   0  0  0  0  0  0  0  0  0  0  0  0
    3.7300   28.4430    6.2910 C   0  0  0  0  0  0  0  0  0  0  0  0
    4.7980   27.5490    6.2080 C   0  0  0  0  0  0  0  0  0  0  0  0
    5.4620   27.2010    7.3720 C   0  0  0  0  0  0  0  0  0  0  0  0
    5.1360   27.6830    8.5860 N   0  0  0  0  0  0  0  0  0  0  0  0
    4.0930   28.5530    8.6350 C   0  0  0  0  0  0  0  0  0  0  0  0
    2.2630   31.1180    7.0850 N   0  0  0  0  0  0  0  0  0  0  0  0
    1.1020   31.7250    7.4240 N   0  0  0  0  0  0  0  0  0  0  0  0
    0.3530   30.9410    8.2170 C   0  0  0  0  0  0  0  0  0  0  0  0
   -1.8035   26.1999   13.6999 H   0  0  0  0  0  0  0  0  0  0  0  0
   -2.7361   25.9582   12.1838 H   0  0  0  0  0  0  0  0  0  0  0  0
   -0.9520   25.7492   12.1838 H   0  0  0  0  0  0  0  0  0  0  0  0
   -2.4640   27.3240   10.4520 H   0  0  0  0  0  0  0  0  0  0  0  0
   -3.9720   30.0787   11.0797 H   0  0  0  0  0  0  0  0  0  0  0  0
   -3.8242   32.2719    9.9063 H   0  0  0  0  0  0  0  0  0  0  0  0
   -1.8309   32.8591    8.4946 H   0  0  0  0  0  0  0  0  0  0  0  0
    3.1878   28.7375    5.3804 H   0  0  0  0  0  0  0  0  0  0  0  0
    5.1058   27.1297    5.2387 H   0  0  0  0  0  0  0  0  0  0  0  0
    6.3007   26.4928    7.3011 H   0  0  0  0  0  0  0  0  0  0  0  0
    3.8156   28.9625    9.6175 H   0  0  0  0  0  0  0  0  0  0  0  0
    0.9190   32.6590    7.0730 H   0  0  0  0  0  0  0  0  0  0  0  0
  1  2  1  0
  2  3  2  0
  2  4  1  0
  4  5  1  0
  5  6  2  0
  6  7  1  0
  7  8  2  0
  8  9  1  0
  9 10  2  0
 10 11  1  0
 11 12  2  0
 11 13  1  0
 13 14  1  0
 14 15  1  0
 15 16  2  0
 16 17  1  0
 17 18  2  0
 18 19  1  0
 19 20  2  0
 14 21  2  0
 21 22  1  0
 22 23  1  0
 10  5  1  0
 23 13  2  0
 23  9  1  0
 20 15  1  0
  1 24  1  0
  1 25  1  0
  1 26  1  0
  4 27  1  0
  6 28  1  0
  7 29  1  0
  8 30  1  0
 16 31  1  0
 17 32  1  0
 18 33  1  0
 20 34  1  0
 22 35  1  0
M  END
>  <vina_affinity>  (14) 
-9.081

$$$$
act_410904
     RDKit          3D

 51 54  0  0  0  0  0  0  0  0999 V2000
   -0.4720   22.4640   15.7080 C   0  0  0  0  0  0  0  0  0  0  0  0
   -0.8110   23.6530   14.9760 N   0  0  0  0  0  0  0  0  0  0  0  0
   -2.0570   24.2380   15.0910 C   0  0  0  0  0  0  0  0  0  0  0  0
   -3.0030   23.7230   15.6800 O   0  0  0  0  0  0  0  0  0  0  0  0
   -2.1690   25.5810   14.3570 C   0  0  0  0  0  0  0  0  0  0  0  0
   -1.0780   25.7340   13.3580 N   0  0  0  0  0  0  0  0  0  0  0  0
   -1.5750   25.5210   11.9890 C   0  0  0  0  0  0  0  0  0  0  0  0
   -2.4470   26.6550   11.4540 C   0  0  0  0  0  0  0  0  0  0  0  0
   -1.7000   27.9910   11.5270 C   0  0  0  0  0  0  0  0  0  0  0  0
   -2.5850   29.0850   11.1390 N   0  0  0  0  0  0  0  0  0  0  0  0
   -2.0070   30.1280   10.4330 C   0  0  0  0  0  0  0  0  0  0  0  0
   -2.5440   31.3560   10.4570 N   0  0  0  0  0  0  0  0  0  0  0  0
   -1.9030   32.3180    9.7590 C   0  0  0  0  0  0  0  0  0  0  0  0
   -0.7610   32.1050    9.0240 C   0  0  0  0  0  0  0  0  0  0  0  0
   -0.0100   33.4180    8.2120 Cl  0  0  0  0  0  0  0  0  0  0  0  0
   -0.3010   30.8030    9.0420 C   0  0  0  0  0  0  0  0  0  0  0  0
    0.8830   30.3740    8.3140 C   0  0  0  0  0  0  0  0  0  0  0  0
    1.2850   30.9720    7.1360 C   0  0  0  0  0  0  0  0  0  0  0  0
    2.4270   30.3490    6.7110 N   0  0  0  0  0  0  0  0  0  0  0  0
    2.7970   29.3690    7.6040 C   0  0  0  0  0  0  0  0  0  0  0  0
    3.8940   28.4990    7.5820 C   0  0  0  0  0  0  0  0  0  0  0  0
    4.0330   27.6040    8.6440 C   0  0  0  0  0  0  0  0  0  0  0  0
    3.1140   27.5820    9.6900 C   0  0  0  0  0  0  0  0  0  0  0  0
    2.0220   28.4590    9.6970 C   0  0  0  0  0  0  0  0  0  0  0  0
    1.8500   29.3670    8.6310 C   0  0  0  0  0  0  0  0  0  0  0  0
   -0.9070   29.8130    9.7450 N   0  0  0  0  0  0  0  0  0  0  0  0
   -1.2120   28.2270   12.9610 C   0  0  0  0  0  0  0  0  0  0  0  0
   -0.3960   27.0360   13.4660 C   0  0  0  0  0  0  0  0  0  0  0  0
   -0.5304   22.6687   16.7872 H   0  0  0  0  0  0  0  0  0  0  0  0
   -1.1768   21.6603   15.4486 H   0  0  0  0  0  0  0  0  0  0  0  0
    0.5507   22.1528   15.4486 H   0  0  0  0  0  0  0  0  0  0  0  0
   -0.0780   24.2960   14.6880 H   0  0  0  0  0  0  0  0  0  0  0  0
   -3.1391   25.6291   13.8407 H   0  0  0  0  0  0  0  0  0  0  0  0
   -2.0851   26.3923   15.0951 H   0  0  0  0  0  0  0  0  0  0  0  0
   -0.7081   25.4085   11.3213 H   0  0  0  0  0  0  0  0  0  0  0  0
   -2.2097   24.6231   12.0202 H   0  0  0  0  0  0  0  0  0  0  0  0
   -2.7106   26.4451   10.4069 H   0  0  0  0  0  0  0  0  0  0  0  0
   -3.3563   26.7233   12.0692 H   0  0  0  0  0  0  0  0  0  0  0  0
   -0.8423   27.9561   10.8391 H   0  0  0  0  0  0  0  0  0  0  0  0
   -3.1050   29.5280   11.8900 H   0  0  0  0  0  0  0  0  0  0  0  0
   -2.3207   33.3354    9.7799 H   0  0  0  0  0  0  0  0  0  0  0  0
    0.7760   31.8042    6.6277 H   0  0  0  0  0  0  0  0  0  0  0  0
    2.9410   30.5830    5.8730 H   0  0  0  0  0  0  0  0  0  0  0  0
    4.6208   28.5202    6.7566 H   0  0  0  0  0  0  0  0  0  0  0  0
    4.8821   26.9048    8.6549 H   0  0  0  0  0  0  0  0  0  0  0  0
    3.2468   26.8698   10.5177 H   0  0  0  0  0  0  0  0  0  0  0  0
    1.3026   28.4399   10.5289 H   0  0  0  0  0  0  0  0  0  0  0  0
   -0.5829   29.1291   12.9829 H   0  0  0  0  0  0  0  0  0  0  0  0
   -2.0889   28.3524   13.6131 H   0  0  0  0  0  0  0  0  0  0  0  0
    0.5345   26.9853   12.8815 H   0  0  0  0  0  0  0  0  0  0  0  0
   -0.2235   27.2091   14.5385 H   0  0  0  0  0  0  0  0  0  0  0  0
  1  2  1  0
  2  3  1  0
  3  4  2  0
  3  5  1  0
  5  6  1  0
  6  7  1  0
  7  8  1  0
  8  9  1  0
  9 10  1  0
 10 11  1  0
 11 12  2  0
 12 13  1  0
 13 14  2  0
 14 15  1  0
 14 16  1  0
 16 17  1  0
 17 18  2  0
 18 19  1  0
 19 20  1  0
 20 21  2  0
 21 22  1  0
 22 23  2  0
 23 24  1  0
 24 25  2  0
 16 26  2  0
  9 27  1  0
 27 28  1  0
 28  6  1  0
 26 11  1  0
 25 17  1  0
 25 20  1  0
  1 29  1  0
  1 30  1  0
  1 31  1  0
  2 32  1  0
  5 33  1  0
  5 34  1  0
  7 35  1  0
  7 36  1  0
  8 37  1  0
  8 38  1  0
  9 39  1  0
 10 40  1  0
 13 41  1  0
 18 42  1  0
 19 43  1  0
 21 44  1  0
 22 45  1  0
 23 46  1  0
 24 47  1  0
 27 48  1  0
 27 49  1  0
 28 50  1  0
 28 51  1  0
M  END
>  <vina_affinity>  (15) 
-8.994

$$$$
act_429225
     RDKit          3D

 32 35  0  0  0  0  0  0  0  0999 V2000
   -2.7090   26.3280   15.5780 O   0  0  0  0  0  0  0  0  0  0  0  0
   -3.0590   25.5830   14.6780 C   0  0  0  0  0  0  0  0  0  0  0  0
   -2.6450   25.5730   13.3780 N   0  0  0  0  0  0  0  0  0  0  0  0
   -1.7160   26.3820   12.7680 C   0  0  0  0  0  0  0  0  0  0  0  0
   -0.4340   26.0750   13.0210 N   0  0  0  0  0  0  0  0  0  0  0  0
    0.2630   26.9890   12.3260 N   0  0  0  0  0  0  0  0  0  0  0  0
   -0.5140   27.8720   11.6440 C   0  0  0  0  0  0  0  0  0  0  0  0
   -0.0560   28.8800   10.8800 N   0  0  0  0  0  0  0  0  0  0  0  0
   -1.0460   29.6060   10.2970 C   0  0  0  0  0  0  0  0  0  0  0  0
   -0.5240   30.6940    9.4720 C   0  0  0  0  0  0  0  0  0  0  0  0
   -0.7720   32.0490    9.5720 C   0  0  0  0  0  0  0  0  0  0  0  0
   -0.0700   32.8020    8.5860 C   0  0  0  0  0  0  0  0  0  0  0  0
    0.7020   31.9980    7.7770 C   0  0  0  0  0  0  0  0  0  0  0  0
    0.5830   30.3480    8.2100 S   0  0  0  0  0  0  0  0  0  0  0  0
   -2.4120   29.3670   10.4780 C   0  0  0  0  0  0  0  0  0  0  0  0
   -3.7630   30.4440    9.6880 Br  0  0  0  0  0  0  0  0  0  0  0  0
   -2.8200   28.3020   11.2920 C   0  0  0  0  0  0  0  0  0  0  0  0
   -1.8300   27.5120   11.9020 C   0  0  0  0  0  0  0  0  0  0  0  0
   -4.0940   24.5480   14.9610 C   0  0  0  0  0  0  0  0  0  0  0  0
   -4.5740   24.3420   16.3790 C   0  0  0  0  0  0  0  0  0  0  0  0
   -3.7540   23.2800   15.7110 C   0  0  0  0  0  0  0  0  0  0  0  0
   -3.0500   24.9020   12.7390 H   0  0  0  0  0  0  0  0  0  0  0  0
    1.2750   26.9680   12.3500 H   0  0  0  0  0  0  0  0  0  0  0  0
   -1.4357   32.4962   10.3266 H   0  0  0  0  0  0  0  0  0  0  0  0
   -0.1369   33.8952    8.4835 H   0  0  0  0  0  0  0  0  0  0  0  0
    1.3222   32.3732    6.9496 H   0  0  0  0  0  0  0  0  0  0  0  0
   -3.8877   28.0895   11.4497 H   0  0  0  0  0  0  0  0  0  0  0  0
   -4.5631   24.7669   13.9904 H   0  0  0  0  0  0  0  0  0  0  0  0
   -4.1413   24.9366   17.1971 H   0  0  0  0  0  0  0  0  0  0  0  0
   -5.5541   24.3667   16.8778 H   0  0  0  0  0  0  0  0  0  0  0  0
   -2.7203   23.0964   16.0393 H   0  0  0  0  0  0  0  0  0  0  0  0
   -3.8846   22.2050   15.5178 H   0  0  0  0  0  0  0  0  0  0  0  0
  1  2  2  0
  2  3  1  0
  3  4  1  0
  4  5  2  0
  5  6  1  0
  6  7  1  0
  7  8  2  0
  8  9  1  0
  9 10  1  0
 10 11  2  0
 11 12  1  0
 12 13  2  0
 13 14  1  0
  9 15  2  0
 15 16  1  0
 15 17  1  0
 17 18  2  0
  2 19  1  0
 19 20  1  0
 20 21  1  0
 18  4  1  0
 21 19  1  0
 18  7  1  0
 14 10  1  0
  3 22  1  0
  6 23  1  0
 11 24  1  0
 12 25  1  0
 13 26  1  0
 17 27  1  0
 19 28  1  0
 20 29  1  0
 20 30  1  0
 21 31  1  0
 21 32  1  0
M  END
>  <vina_affinity>  (16) 
-7.572

$$$$
act_210905
     RDKit          3D

 40 42  0  0  0  0  0  0  0  0999 V2000
   -0.5330   32.7100    8.6290 C   0  0  0  0  0  0  0  0  0  0  0  0
   -1.5130   32.6900    9.7920 C   0  0  0  0  0  0  0  0  0  0  0  0
   -1.8610   31.3070   10.1810 C   0  0  0  0  0  0  0  0  0  0  0  0
   -2.8010   30.3910    9.7710 C   0  0  0  0  0  0  0  0  0  0  0  0
   -2.6880   29.2400   10.5070 N   0  0  0  0  0  0  0  0  0  0  0  0
   -1.6980   29.4960   11.3420 C   0  0  0  0  0  0  0  0  0  0  0  0
   -1.1420   28.6330   12.4140 C   0  0  0  0  0  0  0  0  0  0  0  0
   -1.3850   26.8550   12.0920 S   0  0  0  0  0  0  0  0  0  0  0  0
    0.1730   26.4290   11.4180 C   0  0  0  0  0  0  0  0  0  0  0  0
    1.0180   25.4140   11.8150 C   0  0  0  0  0  0  0  0  0  0  0  0
    2.1960   25.3030   11.1000 N   0  0  0  0  0  0  0  0  0  0  0  0
    2.2280   26.2350   10.1750 C   0  0  0  0  0  0  0  0  0  0  0  0
    3.3080   26.3460    9.3390 N   0  0  0  0  0  0  0  0  0  0  0  0
    3.8310   27.5010    8.7980 C   0  0  0  0  0  0  0  0  0  0  0  0
    3.4280   28.6470    8.9630 O   0  0  0  0  0  0  0  0  0  0  0  0
    5.0540   27.2390    7.9310 C   0  0  0  0  0  0  0  0  0  0  0  0
    4.7110   26.8510    6.5190 C   0  0  0  0  0  0  0  0  0  0  0  0
    4.4310   27.8130    5.5440 C   0  0  0  0  0  0  0  0  0  0  0  0
    4.1130   27.4120    4.2500 C   0  0  0  0  0  0  0  0  0  0  0  0
    4.0930   26.0570    3.9710 C   0  0  0  0  0  0  0  0  0  0  0  0
    4.3680   25.1000    4.8810 N   0  0  0  0  0  0  0  0  0  0  0  0
    4.6770   25.5160    6.1280 C   0  0  0  0  0  0  0  0  0  0  0  0
    0.8720   27.2590   10.0940 S   0  0  0  0  0  0  0  0  0  0  0  0
   -1.1300   30.7340   11.1830 O   0  0  0  0  0  0  0  0  0  0  0  0
    0.4961   32.7310    9.0170 H   0  0  0  0  0  0  0  0  0  0  0  0
   -0.6748   31.8088    8.0144 H   0  0  0  0  0  0  0  0  0  0  0  0
   -0.7115   33.6047    8.0144 H   0  0  0  0  0  0  0  0  0  0  0  0
   -1.0566   33.1998   10.6533 H   0  0  0  0  0  0  0  0  0  0  0  0
   -2.4338   33.2030    9.4774 H   0  0  0  0  0  0  0  0  0  0  0  0
   -3.5360   30.5574    8.9697 H   0  0  0  0  0  0  0  0  0  0  0  0
   -0.0631   28.8300   12.4988 H   0  0  0  0  0  0  0  0  0  0  0  0
   -1.6771   28.8760   13.3438 H   0  0  0  0  0  0  0  0  0  0  0  0
    0.7709   24.7371   12.6461 H   0  0  0  0  0  0  0  0  0  0  0  0
    3.7040   25.4490    9.0920 H   0  0  0  0  0  0  0  0  0  0  0  0
    5.6645   28.1536    7.9031 H   0  0  0  0  0  0  0  0  0  0  0  0
    5.5952   26.3925    8.3788 H   0  0  0  0  0  0  0  0  0  0  0  0
    4.4619   28.8827    5.7987 H   0  0  0  0  0  0  0  0  0  0  0  0
    3.8836   28.1526    3.4697 H   0  0  0  0  0  0  0  0  0  0  0  0
    3.8382   25.7420    2.9483 H   0  0  0  0  0  0  0  0  0  0  0  0
    4.9168   24.7517    6.8819 H   0  0  0  0  0  0  0  0  0  0  0  0
  1  2  1  0
  2  3  1  0
  3  4  2  0
  4  5  1  0
  5  6  2  0
  6  7  1  0
  7  8  1  0
  8  9  1  0
  9 10  2  0
 10 11  1  0
 11 12  2  0
 12 13  1  0
 13 14  1  0
 14 15  2  0
 14 16  1  0
 16 17  1  0
 17 18  2  0
 18 19  1  0
 19 20  2  0
 20 21  1  0
 21 22  2  0
 12 23  1  0
  6 24  1  0
 24  3  1  0
 23  9  1  0
 22 17  1  0
  1 25  1  0
  1 26  1  0
  1 27  1  0
  2 28  1  0
  2 29  1  0
  4 30  1  0
  7 31  1  0
  7 32  1  0
 10 33  1  0
 13 34  1  0
 16 35  1  0
 16 36  1  0
 18 37  1  0
 19 38  1  0
 20 39  1  0
 22 40  1  0
M  END
>  <vina_affinity>  (17) 
-7.076

$$$$
act_495135
     RDKit          3D

 52 56  0  0  0  0  0  0  0  0999 V2000
   -1.6600   27.8290   10.1220 O   0  0  0  0  0  0  0  0  0  0  0  0
   -0.6820   28.5590   10.1990 C   0  0  0  0  0  0  0  0  0  0  0  0
    0.5710   28.2120   10.6350 N   0  0  0  0  0  0  0  0  0  0  0  0
    1.0630   26.9670   11.0080 C   0  0  0  0  0  0  0  0  0  0  0  0
    2.2650   26.5700   10.4510 C   0  0  0  0  0  0  0  0  0  0  0  0
    2.5510   25.3440   10.9550 N   0  0  0  0  0  0  0  0  0  0  0  0
    1.6190   24.8850   11.7800 N   0  0  0  0  0  0  0  0  0  0  0  0
    0.6810   25.8510   11.8320 C   0  0  0  0  0  0  0  0  0  0  0  0
   -0.6010   25.5300   12.7100 C   0  0  0  0  0  0  0  0  0  0  0  0
   -0.6870   24.4770   13.5110 N   0  0  0  0  0  0  0  0  0  0  0  0
   -1.9350   24.5240   14.0750 C   0  0  0  0  0  0  0  0  0  0  0  0
   -2.5450   23.6560   14.9910 C   0  0  0  0  0  0  0  0  0  0  0  0
   -3.8550   23.9310   15.4310 C   0  0  0  0  0  0  0  0  0  0  0  0
   -4.5240   23.0070   16.4280 C   0  0  0  0  0  0  0  0  0  0  0  0
   -5.9150   22.6830   16.0810 N   0  0  0  0  0  0  0  0  0  0  0  0
   -6.0130   21.4140   15.3310 C   0  0  0  0  0  0  0  0  0  0  0  0
   -6.4310   20.2200   16.2030 C   0  0  0  0  0  0  0  0  0  0  0  0
   -7.7030   20.4000   16.8400 O   0  0  0  0  0  0  0  0  0  0  0  0
   -8.0310   21.7810   17.0580 C   0  0  0  0  0  0  0  0  0  0  0  0
   -6.7860   22.6530   17.2780 C   0  0  0  0  0  0  0  0  0  0  0  0
   -4.5270   25.0680   14.9490 C   0  0  0  0  0  0  0  0  0  0  0  0
   -3.9320   25.9440   14.0320 C   0  0  0  0  0  0  0  0  0  0  0  0
   -2.6370   25.6300   13.6200 C   0  0  0  0  0  0  0  0  0  0  0  0
   -1.7650   26.2450   12.7600 N   0  0  0  0  0  0  0  0  0  0  0  0
   -0.8430   29.9970    9.8430 C   0  0  0  0  0  0  0  0  0  0  0  0
   -1.8680   30.7270   10.4540 C   0  0  0  0  0  0  0  0  0  0  0  0
   -2.0480   32.0760   10.1430 C   0  0  0  0  0  0  0  0  0  0  0  0
   -1.2130   32.6940    9.2120 C   0  0  0  0  0  0  0  0  0  0  0  0
   -0.2010   31.9640    8.5840 C   0  0  0  0  0  0  0  0  0  0  0  0
   -0.0170   30.6150    8.8950 C   0  0  0  0  0  0  0  0  0  0  0  0
    1.1980   28.9810   10.8410 H   0  0  0  0  0  0  0  0  0  0  0  0
    2.8740   27.1408    9.7345 H   0  0  0  0  0  0  0  0  0  0  0  0
    3.3590   24.7560   10.7760 H   0  0  0  0  0  0  0  0  0  0  0  0
   -2.0075   22.7708   15.3619 H   0  0  0  0  0  0  0  0  0  0  0  0
   -3.9492   22.0703   16.4755 H   0  0  0  0  0  0  0  0  0  0  0  0
   -4.5441   23.5318   17.3945 H   0  0  0  0  0  0  0  0  0  0  0  0
   -6.7573   21.5387   14.5307 H   0  0  0  0  0  0  0  0  0  0  0  0
   -5.0106   21.1922   14.9360 H   0  0  0  0  0  0  0  0  0  0  0  0
   -6.4830   19.3243   15.5666 H   0  0  0  0  0  0  0  0  0  0  0  0
   -5.6792   20.1197   16.9997 H   0  0  0  0  0  0  0  0  0  0  0  0
   -8.5747   22.1575   16.1790 H   0  0  0  0  0  0  0  0  0  0  0  0
   -8.6453   21.8392   17.9687 H   0  0  0  0  0  0  0  0  0  0  0  0
   -7.1070   23.6792   17.5102 H   0  0  0  0  0  0  0  0  0  0  0  0
   -6.2092   22.2206   18.1089 H   0  0  0  0  0  0  0  0  0  0  0  0
   -5.5481   25.2754   15.3017 H   0  0  0  0  0  0  0  0  0  0  0  0
   -4.4589   26.8335   13.6563 H   0  0  0  0  0  0  0  0  0  0  0  0
   -1.9240   27.1210   12.2840 H   0  0  0  0  0  0  0  0  0  0  0  0
   -2.5331   30.2374   11.1806 H   0  0  0  0  0  0  0  0  0  0  0  0
   -2.8480   32.6514   10.6319 H   0  0  0  0  0  0  0  0  0  0  0  0
   -1.3517   33.7585    8.9718 H   0  0  0  0  0  0  0  0  0  0  0  0
    0.4510   32.4518    7.8444 H   0  0  0  0  0  0  0  0  0  0  0  0
    0.7757   30.0382    8.3961 H   0  0  0  0  0  0  0  0  0  0  0  0
  1  2  2  0
  2  3  1  0
  3  4  1  0
  4  5  2  0
  5  6  1  0
  6  7  1  0
  7  8  2  0
  8  9  1  0
  9 10  2  0
 10 11  1  0
 11 12  2  0
 12 13  1  0
 13 14  1  0
 14 15  1  0
 15 16  1  0
 16 17  1  0
 17 18  1  0
 18 19  1  0
 19 20  1  0
 13 21  2  0
 21 22  1  0
 22 23  2  0
 23 24  1  0
  2 25  1  0
 25 26  2  0
 26 27  1  0
 27 28  2  0
 28 29  1  0
 29 30  2  0
  8  4  1  0
 24  9  1  0
 30 25  1  0
 23 11  1  0
 20 15  1  0
  3 31  1  0
  5 32  1  0
  6 33  1  0
 12 34  1  0
 14 35  1  0
 14 36  1  0
 16 37  1  0
 16 38  1  0
 17 39  1  0
 17 40  1  0
 19 41  1  0
 19 42  1  0
 20 43  1  0
 20 44  1  0
 21 45  1  0
 22 46  1  0
 24 47  1  0
 26 48  1  0
 27 49  1  0
 28 50  1  0
 29 51  1  0
 30 52  1  0
M  END
>  <vina_affinity>  (18) 
-8.767

$$$$
act_203121
     RDKit          3D

 45 48  0  0  0  0  0  0  0  0999 V2000
   -3.0200   31.9480   10.4660 C   0  0  0  0  0  0  0  0  0  0  0  0
   -3.0250   30.7800    9.7110 C   0  0  0  0  0  0  0  0  0  0  0  0
   -1.9040   30.4270    8.9520 C   0  0  0  0  0  0  0  0  0  0  0  0
   -0.7590   31.2300    8.9300 C   0  0  0  0  0  0  0  0  0  0  0  0
    0.3930   30.9340    8.1930 N   0  0  0  0  0  0  0  0  0  0  0  0
    1.4430   30.0310    8.3420 C   0  0  0  0  0  0  0  0  0  0  0  0
    1.2480   29.1340    9.3360 N   0  0  0  0  0  0  0  0  0  0  0  0
    2.1970   28.1930    9.5890 C   0  0  0  0  0  0  0  0  0  0  0  0
    2.0130   27.2700   10.5990 O   0  0  0  0  0  0  0  0  0  0  0  0
    1.6630   25.9690   10.1260 C   0  0  0  0  0  0  0  0  0  0  0  0
    0.3150   25.5620   10.7470 C   0  0  0  0  0  0  0  0  0  0  0  0
    0.1480   26.1820   12.1500 C   0  0  0  0  0  0  0  0  0  0  0  0
   -1.3200   26.3000   12.5420 C   0  0  0  0  0  0  0  0  0  0  0  0
   -2.0880   27.2130   11.5860 C   0  0  0  0  0  0  0  0  0  0  0  0
   -1.5200   27.2260   10.1660 C   0  0  0  0  0  0  0  0  0  0  0  0
   -0.8580   25.9000    9.8080 C   0  0  0  0  0  0  0  0  0  0  0  0
    3.3570   28.1700    8.8180 C   0  0  0  0  0  0  0  0  0  0  0  0
    4.4900   27.3810    8.8000 N   0  0  0  0  0  0  0  0  0  0  0  0
    5.2300   27.8690    7.8260 C   0  0  0  0  0  0  0  0  0  0  0  0
    4.6270   28.9340    7.2150 N   0  0  0  0  0  0  0  0  0  0  0  0
    3.4300   29.1400    7.8370 C   0  0  0  0  0  0  0  0  0  0  0  0
    2.5280   30.0840    7.5490 N   0  0  0  0  0  0  0  0  0  0  0  0
   -0.7770   32.4050    9.7010 C   0  0  0  0  0  0  0  0  0  0  0  0
   -1.8940   32.7630   10.4620 C   0  0  0  0  0  0  0  0  0  0  0  0
   -3.9016   32.2251   11.0626 H   0  0  0  0  0  0  0  0  0  0  0  0
   -3.9135   30.1315    9.7106 H   0  0  0  0  0  0  0  0  0  0  0  0
   -1.9235   29.4996    8.3608 H   0  0  0  0  0  0  0  0  0  0  0  0
    0.5440   31.4720    7.3520 H   0  0  0  0  0  0  0  0  0  0  0  0
    1.5751   25.9854    9.0296 H   0  0  0  0  0  0  0  0  0  0  0  0
    2.4403   25.2454   10.4125 H   0  0  0  0  0  0  0  0  0  0  0  0
    0.3075   24.4695   10.8752 H   0  0  0  0  0  0  0  0  0  0  0  0
    0.6633   25.5458   12.8847 H   0  0  0  0  0  0  0  0  0  0  0  0
    0.5809   27.1931   12.1323 H   0  0  0  0  0  0  0  0  0  0  0  0
   -1.7759   25.2991   12.5227 H   0  0  0  0  0  0  0  0  0  0  0  0
   -1.3721   26.7370   13.5501 H   0  0  0  0  0  0  0  0  0  0  0  0
   -3.1321   26.8697   11.5402 H   0  0  0  0  0  0  0  0  0  0  0  0
   -2.0022   28.2372   11.9780 H   0  0  0  0  0  0  0  0  0  0  0  0
   -2.3387   27.4179    9.4569 H   0  0  0  0  0  0  0  0  0  0  0  0
   -0.7557   28.0152   10.1110 H   0  0  0  0  0  0  0  0  0  0  0  0
   -1.6090   25.0993    9.8772 H   0  0  0  0  0  0  0  0  0  0  0  0
   -0.4582   25.9875    8.7870 H   0  0  0  0  0  0  0  0  0  0  0  0
    6.2135   27.4688    7.5387 H   0  0  0  0  0  0  0  0  0  0  0  0
    4.9870   29.4790    6.4470 H   0  0  0  0  0  0  0  0  0  0  0  0
    0.1081   33.0581    9.7058 H   0  0  0  0  0  0  0  0  0  0  0  0
   -1.8817   33.6883   11.0567 H   0  0  0  0  0  0  0  0  0  0  0  0
  1  2  2  0
  2  3  1  0
  3  4  2  0
  4  5  1  0
  5  6  1  0
  6  7  2  0
  7  8  1  0
  8  9  1  0
  9 10  1  0
 10 11  1  0
 11 12  1  0
 12 13  1  0
 13 14  1  0
 14 15  1  0
 15 16  1  0
  8 17  2  0
 17 18  1  0
 18 19  2  0
 19 20  1  0
 20 21  1  0
 21 22  2  0
  4 23  1  0
 23 24  2  0
 24  1  1  0
 22  6  1  0
 16 11  1  0
 21 17  1  0
  1 25  1  0
  2 26  1  0
  3 27  1  0
  5 28  1  0
 10 29  1  0
 10 30  1  0
 11 31  1  0
 12 32  1  0
 12 33  1  0
 13 34  1  0
 13 35  1  0
 14 36  1  0
 14 37  1  0
 15 38  1  0
 15 39  1  0
 16 40  1  0
 16 41  1  0
 19 42  1  0
 20 43  1  0
 23 44  1  0
 24 45  1  0
M  END
>  <vina_affinity>  (19) 
-8.285

$$$$
act_311518
     RDKit          3D

 40 43  0  0  0  0  0  0  0  0999 V2000
    0.2670   28.1300   11.5790 O   0  0  0  0  0  0  0  0  0  0  0  0
   -0.6040   27.6560   10.8550 C   0  0  0  0  0  0  0  0  0  0  0  0
   -0.7810   28.1900    9.4390 C   0  0  0  0  0  0  0  0  0  0  0  0
   -0.9910   29.6900    9.3620 C   0  0  0  0  0  0  0  0  0  0  0  0
   -2.0550   30.2480   10.0960 C   0  0  0  0  0  0  0  0  0  0  0  0
   -2.2840   31.6200   10.0870 C   0  0  0  0  0  0  0  0  0  0  0  0
   -1.4580   32.4560    9.3420 C   0  0  0  0  0  0  0  0  0  0  0  0
   -0.3950   31.9260    8.5930 C   0  0  0  0  0  0  0  0  0  0  0  0
    0.4420   32.7480    7.8350 C   0  0  0  0  0  0  0  0  0  0  0  0
    1.4800   32.3140    7.0870 N   0  0  0  0  0  0  0  0  0  0  0  0
    1.7000   30.9860    7.0900 C   0  0  0  0  0  0  0  0  0  0  0  0
    0.9320   30.0770    7.8040 C   0  0  0  0  0  0  0  0  0  0  0  0
   -0.1470   30.5350    8.5870 C   0  0  0  0  0  0  0  0  0  0  0  0
   -1.4570   26.6180   11.1540 N   0  0  0  0  0  0  0  0  0  0  0  0
   -1.5390   25.9190   12.3290 C   0  0  0  0  0  0  0  0  0  0  0  0
   -2.4750   26.1920   13.2080 N   0  0  0  0  0  0  0  0  0  0  0  0
   -2.3400   25.3530   14.3000 C   0  0  0  0  0  0  0  0  0  0  0  0
   -1.3160   24.4380   14.2090 C   0  0  0  0  0  0  0  0  0  0  0  0
   -0.9370   23.4030   15.3250 C   0  0  0  0  0  0  0  0  0  0  0  0
   -0.0200   22.2270   14.8880 C   0  0  0  0  0  0  0  0  0  0  0  0
   -1.2920   21.3950   14.6400 C   0  0  0  0  0  0  0  0  0  0  0  0
   -2.0130   22.3250   15.6320 C   0  0  0  0  0  0  0  0  0  0  0  0
   -0.4680   24.6620   12.7480 S   0  0  0  0  0  0  0  0  0  0  0  0
    0.1196   27.9376    8.8600 H   0  0  0  0  0  0  0  0  0  0  0  0
   -1.6915   27.7223    9.0363 H   0  0  0  0  0  0  0  0  0  0  0  0
   -2.7131   29.5911   10.6837 H   0  0  0  0  0  0  0  0  0  0  0  0
   -3.1167   32.0434   10.6679 H   0  0  0  0  0  0  0  0  0  0  0  0
   -1.6392   33.5410    9.3398 H   0  0  0  0  0  0  0  0  0  0  0  0
    0.2411   33.8294    7.8480 H   0  0  0  0  0  0  0  0  0  0  0  0
    2.5376   30.5986    6.4914 H   0  0  0  0  0  0  0  0  0  0  0  0
    1.1644   29.0028    7.7591 H   0  0  0  0  0  0  0  0  0  0  0  0
   -2.1640   26.3420   10.4870 H   0  0  0  0  0  0  0  0  0  0  0  0
   -3.0023   25.4129   15.1762 H   0  0  0  0  0  0  0  0  0  0  0  0
   -0.6144   24.1445   16.0707 H   0  0  0  0  0  0  0  0  0  0  0  0
    0.5786   22.4255   13.9867 H   0  0  0  0  0  0  0  0  0  0  0  0
    0.7887   21.8588   15.5365 H   0  0  0  0  0  0  0  0  0  0  0  0
   -1.6747   21.4382   13.6096 H   0  0  0  0  0  0  0  0  0  0  0  0
   -1.3008   20.3017   14.7611 H   0  0  0  0  0  0  0  0  0  0  0  0
   -3.0352   22.6033   15.3361 H   0  0  0  0  0  0  0  0  0  0  0  0
   -2.2280   22.0071   16.6629 H   0  0  0  0  0  0  0  0  0  0  0  0
  1  2  2  0
  2  3  1  0
  3  4  1  0
  4  5  2  0
  5  6  1  0
  6  7  2  0
  7  8  1  0
  8  9  2  0
  9 10  1  0
 10 11  2  0
 11 12  1  0
 12 13  2  0
  2 14  1  0
 14 15  1  0
 15 16  2  0
 16 17  1  0
 17 18  2  0
 18 19  1  0
 19 20  1  0
 20 21  1  0
 21 22  1  0
 18 23  1  0
 13  4  1  0
 23 15  1  0
 13  8  1  0
 22 19  1  0
  3 24  1  0
  3 25  1  0
  5 26  1  0
  6 27  1  0
  7 28  1  0
  9 29  1  0
 11 30  1  0
 12 31  1  0
 14 32  1  0
 17 33  1  0
 19 34  1  0
 20 35  1  0
 20 36  1  0
 21 37  1  0
 21 38  1  0
 22 39  1  0
 22 40  1  0
M  END
>  <vina_affinity>  (20) 
-8.463

$$$$
act_301074
     RDKit          3D

 37 40  0  0  0  0  0  0  0  0999 V2000
    3.9830   26.4620    8.5870 N   0  0  0  0  0  0  0  0  0  0  0  0
    3.8860   27.8160    8.7960 C   0  0  0  0  0  0  0  0  0  0  0  0
    4.8600   28.5280    8.5720 O   0  0  0  0  0  0  0  0  0  0  0  0
    2.6060   28.2950    9.3360 C   0  0  0  0  0  0  0  0  0  0  0  0
    2.1080   27.7870   10.4820 N   0  0  0  0  0  0  0  0  0  0  0  0
    0.8680   28.3350   10.6150 N   0  0  0  0  0  0  0  0  0  0  0  0
   -0.0510   27.6810   11.4860 C   0  0  0  0  0  0  0  0  0  0  0  0
   -0.2750   28.2210   12.7650 C   0  0  0  0  0  0  0  0  0  0  0  0
   -1.1450   27.5890   13.6550 C   0  0  0  0  0  0  0  0  0  0  0  0
   -1.7650   26.3940   13.2800 C   0  0  0  0  0  0  0  0  0  0  0  0
   -2.8600   25.5960   14.4230 S   0  0  0  0  0  0  0  0  0  0  0  0
   -4.3640   25.9430   13.7510 N   0  0  0  0  0  0  0  0  0  0  0  0
   -2.6450   24.1720   14.3370 O   0  0  0  0  0  0  0  0  0  0  0  0
   -2.8220   26.3180   15.6740 O   0  0  0  0  0  0  0  0  0  0  0  0
   -1.5320   25.8330   12.0220 C   0  0  0  0  0  0  0  0  0  0  0  0
   -0.6640   26.4710   11.1290 C   0  0  0  0  0  0  0  0  0  0  0  0
    0.7110   29.3600    9.7390 C   0  0  0  0  0  0  0  0  0  0  0  0
    1.7540   29.3180    8.8300 C   0  0  0  0  0  0  0  0  0  0  0  0
    1.7480   30.2610    7.7680 C   0  0  0  0  0  0  0  0  0  0  0  0
    0.7270   31.2420    7.6530 C   0  0  0  0  0  0  0  0  0  0  0  0
   -0.2390   31.2770    8.6580 C   0  0  0  0  0  0  0  0  0  0  0  0
   -1.2980   32.0910    8.9520 N   0  0  0  0  0  0  0  0  0  0  0  0
   -1.9180   31.7850   10.1150 N   0  0  0  0  0  0  0  0  0  0  0  0
   -1.2310   30.7350   10.5880 C   0  0  0  0  0  0  0  0  0  0  0  0
   -0.2260   30.3530    9.6810 C   0  0  0  0  0  0  0  0  0  0  0  0
    3.3680   25.8290    9.0760 H   0  0  0  0  0  0  0  0  0  0  0  0
    4.9200   26.1370    8.3860 H   0  0  0  0  0  0  0  0  0  0  0  0
    0.2381   29.1464   13.0657 H   0  0  0  0  0  0  0  0  0  0  0  0
   -1.3411   28.0283   14.6442 H   0  0  0  0  0  0  0  0  0  0  0  0
   -4.2440   26.6380   13.0130 H   0  0  0  0  0  0  0  0  0  0  0  0
   -4.8620   25.1170   13.4200 H   0  0  0  0  0  0  0  0  0  0  0  0
   -2.0285   24.8943   11.7349 H   0  0  0  0  0  0  0  0  0  0  0  0
   -0.4620   26.0227   10.1450 H   0  0  0  0  0  0  0  0  0  0  0  0
    2.5519   30.2311    7.0178 H   0  0  0  0  0  0  0  0  0  0  0  0
    0.6996   31.9444    6.8069 H   0  0  0  0  0  0  0  0  0  0  0  0
   -1.6340   32.8910    8.4270 H   0  0  0  0  0  0  0  0  0  0  0  0
   -1.4262   30.2411   11.5513 H   0  0  0  0  0  0  0  0  0  0  0  0
  1  2  1  0
  2  3  2  0
  2  4  1  0
  4  5  2  0
  5  6  1  0
  6  7  1  0
  7  8  2  0
  8  9  1  0
  9 10  2  0
 10 11  1  0
 11 12  1  0
 11 13  2  0
 11 14  2  0
 10 15  1  0
 15 16  2  0
  6 17  1  0
 17 18  2  0
 18 19  1  0
 19 20  2  0
 20 21  1  0
 21 22  1  0
 22 23  1  0
 23 24  2  0
 24 25  1  0
 18  4  1  0
 25 21  2  0
 16  7  1  0
 25 17  1  0
  1 26  1  0
  1 27  1  0
  8 28  1  0
  9 29  1  0
 12 30  1  0
 12 31  1  0
 15 32  1  0
 16 33  1  0
 19 34  1  0
 20 35  1  0
 22 36  1  0
 24 37  1  0
M  END
>  <vina_affinity>  (21) 
-8.957

$$$$
act_136688
     RDKit          3D

 47 51  0  0  0  0  0  0  0  0999 V2000
    6.1320   24.3730    7.0120 O   0  0  0  0  0  0  0  0  0  0  0  0
    6.4470   25.5680    6.2590 S   0  0  0  0  0  0  0  0  0  0  0  0
    6.4200   25.5670    4.8110 O   0  0  0  0  0  0  0  0  0  0  0  0
    7.9740   26.1370    6.6990 N   0  0  0  0  0  0  0  0  0  0  0  0
    9.1300   25.5400    6.1250 C   0  0  0  0  0  0  0  0  0  0  0  0
    9.6960   26.1120    4.9850 C   0  0  0  0  0  0  0  0  0  0  0  0
   10.8550   25.5630    4.4320 C   0  0  0  0  0  0  0  0  0  0  0  0
   11.4450   24.4440    5.0190 C   0  0  0  0  0  0  0  0  0  0  0  0
   10.8780   23.8720    6.1580 C   0  0  0  0  0  0  0  0  0  0  0  0
    9.7210   24.4200    6.7110 C   0  0  0  0  0  0  0  0  0  0  0  0
    5.3590   26.8660    6.8070 C   0  0  0  0  0  0  0  0  0  0  0  0
    4.5730   27.5530    5.8770 C   0  0  0  0  0  0  0  0  0  0  0  0
    3.7250   28.5720    6.3160 C   0  0  0  0  0  0  0  0  0  0  0  0
    3.6800   28.9250    7.6680 C   0  0  0  0  0  0  0  0  0  0  0  0
    2.8130   29.9400    8.0920 N   0  0  0  0  0  0  0  0  0  0  0  0
    1.5750   29.8040    7.7480 C   0  0  0  0  0  0  0  0  0  0  0  0
    0.5890   30.7620    8.1940 C   0  0  0  0  0  0  0  0  0  0  0  0
    0.6410   32.1060    7.8360 C   0  0  0  0  0  0  0  0  0  0  0  0
    1.4800   32.8130    7.0860 O   0  0  0  0  0  0  0  0  0  0  0  0
   -0.4420   32.7550    8.3740 N   0  0  0  0  0  0  0  0  0  0  0  0
   -1.2110   31.8850    9.0970 C   0  0  0  0  0  0  0  0  0  0  0  0
   -2.3940   32.0550    9.8230 C   0  0  0  0  0  0  0  0  0  0  0  0
   -2.9190   30.9290   10.4980 C   0  0  0  0  0  0  0  0  0  0  0  0
   -2.2630   29.6790   10.4600 C   0  0  0  0  0  0  0  0  0  0  0  0
   -2.6360   28.5050   11.0930 N   0  0  0  0  0  0  0  0  0  0  0  0
   -1.7390   27.5800   10.8260 C   0  0  0  0  0  0  0  0  0  0  0  0
   -0.4200   28.0630    9.8360 S   0  0  0  0  0  0  0  0  0  0  0  0
   -1.0970   29.5790    9.7170 C   0  0  0  0  0  0  0  0  0  0  0  0
   -0.5810   30.6520    9.0240 C   0  0  0  0  0  0  0  0  0  0  0  0
    4.4760   28.2340    8.5880 C   0  0  0  0  0  0  0  0  0  0  0  0
    5.3250   27.2100    8.1610 C   0  0  0  0  0  0  0  0  0  0  0  0
    8.0160   26.4000    7.6820 H   0  0  0  0  0  0  0  0  0  0  0  0
    9.2298   26.9944    4.5224 H   0  0  0  0  0  0  0  0  0  0  0  0
   11.3024   26.0132    3.5336 H   0  0  0  0  0  0  0  0  0  0  0  0
   12.3581   24.0121    4.5835 H   0  0  0  0  0  0  0  0  0  0  0  0
   11.3435   22.9888    6.6199 H   0  0  0  0  0  0  0  0  0  0  0  0
    9.2741   23.9692    7.6094 H   0  0  0  0  0  0  0  0  0  0  0  0
    4.6221   27.2932    4.8092 H   0  0  0  0  0  0  0  0  0  0  0  0
    3.0875   29.1011    5.5924 H   0  0  0  0  0  0  0  0  0  0  0  0
    1.2710   28.9576    7.1146 H   0  0  0  0  0  0  0  0  0  0  0  0
    2.3890   32.6600    7.3970 H   0  0  0  0  0  0  0  0  0  0  0  0
   -0.6320   33.7370    8.2400 H   0  0  0  0  0  0  0  0  0  0  0  0
   -2.8988   33.0313    9.8674 H   0  0  0  0  0  0  0  0  0  0  0  0
   -3.8570   31.0286   11.0639 H   0  0  0  0  0  0  0  0  0  0  0  0
   -1.8285   26.5549   11.2148 H   0  0  0  0  0  0  0  0  0  0  0  0
    4.4330   28.4988    9.6548 H   0  0  0  0  0  0  0  0  0  0  0  0
    5.9613   26.6791    8.8844 H   0  0  0  0  0  0  0  0  0  0  0  0
  1  2  2  0
  2  3  2  0
  2  4  1  0
  4  5  1  0
  5  6  2  0
  6  7  1  0
  7  8  2  0
  8  9  1  0
  9 10  2  0
  2 11  1  0
 11 12  2  0
 12 13  1  0
 13 14  2  0
 14 15  1  0
 15 16  2  0
 16 17  1  0
 17 18  2  0
 18 19  1  0
 18 20  1  0
 20 21  1  0
 21 22  2  0
 22 23  1  0
 23 24  2  0
 24 25  1  0
 25 26  2  0
 26 27  1  0
 27 28  1  0
 28 29  2  0
 14 30  1  0
 30 31  2  0
 10  5  1  0
 31 11  1  0
 29 17  1  0
 29 21  1  0
 28 24  1  0
  4 32  1  0
  6 33  1  0
  7 34  1  0
  8 35  1  0
  9 36  1  0
 10 37  1  0
 12 38  1  0
 13 39  1  0
 16 40  1  0
 19 41  1  0
 20 42  1  0
 22 43  1  0
 23 44  1  0
 26 45  1  0
 30 46  1  0
 31 47  1  0
M  END
>  <vina_affinity>  (22) 
-9.445

$$$$
act_116460
     RDKit          3D

 37 42  0  0  0  0  0  0  0  0999 V2000
    2.8680   27.3910    9.2990 O   0  0  0  0  0  0  0  0  0  0  0  0
    2.2270   26.7830   10.1340 C   0  0  0  0  0  0  0  0  0  0  0  0
    2.6050   25.6410   10.7630 N   0  0  0  0  0  0  0  0  0  0  0  0
    1.6710   25.2010   11.6460 C   0  0  0  0  0  0  0  0  0  0  0  0
    1.7590   24.2070   12.3360 O   0  0  0  0  0  0  0  0  0  0  0  0
    0.5650   26.1550   11.5910 C   0  0  0  0  0  0  0  0  0  0  0  0
    0.8990   27.1380   10.6580 C   0  0  0  0  0  0  0  0  0  0  0  0
    0.0450   28.2050   10.3680 C   0  0  0  0  0  0  0  0  0  0  0  0
   -1.1990   28.2690   11.0580 C   0  0  0  0  0  0  0  0  0  0  0  0
   -2.1100   29.3130   10.8190 C   0  0  0  0  0  0  0  0  0  0  0  0
   -1.8170   30.3190    9.8930 C   0  0  0  0  0  0  0  0  0  0  0  0
   -0.5980   30.2910    9.1910 C   0  0  0  0  0  0  0  0  0  0  0  0
   -0.0200   31.1440    8.2110 C   0  0  0  0  0  0  0  0  0  0  0  0
    1.2040   30.6230    7.8730 C   0  0  0  0  0  0  0  0  0  0  0  0
    1.3910   29.4870    8.6120 N   0  0  0  0  0  0  0  0  0  0  0  0
    0.3040   29.2510    9.4330 C   0  0  0  0  0  0  0  0  0  0  0  0
   -1.5070   27.2440   12.0070 C   0  0  0  0  0  0  0  0  0  0  0  0
   -2.6220   27.0690   12.7990 N   0  0  0  0  0  0  0  0  0  0  0  0
   -2.5170   25.9430   13.5770 C   0  0  0  0  0  0  0  0  0  0  0  0
   -3.4220   25.4150   14.5090 C   0  0  0  0  0  0  0  0  0  0  0  0
   -3.0480   24.2420   15.1630 C   0  0  0  0  0  0  0  0  0  0  0  0
   -3.8700   23.6600   16.0860 O   0  0  0  0  0  0  0  0  0  0  0  0
   -1.8360   23.6220   14.9070 C   0  0  0  0  0  0  0  0  0  0  0  0
   -0.9470   24.1680   13.9710 C   0  0  0  0  0  0  0  0  0  0  0  0
   -1.2860   25.3550   13.2860 C   0  0  0  0  0  0  0  0  0  0  0  0
   -0.6450   26.1720   12.2950 C   0  0  0  0  0  0  0  0  0  0  0  0
    3.4780   25.1680   10.5980 H   0  0  0  0  0  0  0  0  0  0  0  0
   -3.0637   29.3387   11.3665 H   0  0  0  0  0  0  0  0  0  0  0  0
   -2.5379   31.1303    9.7138 H   0  0  0  0  0  0  0  0  0  0  0  0
   -0.4726   32.0575    7.7979 H   0  0  0  0  0  0  0  0  0  0  0  0
    1.9080   31.0433    7.1397 H   0  0  0  0  0  0  0  0  0  0  0  0
    2.2120   28.8880    8.5710 H   0  0  0  0  0  0  0  0  0  0  0  0
   -3.4190   27.6870   12.8100 H   0  0  0  0  0  0  0  0  0  0  0  0
   -4.3850   25.9050   14.7151 H   0  0  0  0  0  0  0  0  0  0  0  0
   -3.3440   23.0610   16.6400 H   0  0  0  0  0  0  0  0  0  0  0  0
   -1.5702   22.6974   15.4404 H   0  0  0  0  0  0  0  0  0  0  0  0
    0.0141   23.6720   13.7703 H   0  0  0  0  0  0  0  0  0  0  0  0
  1  2  2  0
  2  3  1  0
  3  4  1  0
  4  5  2  0
  4  6  1  0
  6  7  2  0
  7  8  1  0
  8  9  2  0
  9 10  1  0
 10 11  2  0
 11 12  1  0
 12 13  1  0
 13 14  2  0
 14 15  1  0
 15 16  1  0
  9 17  1  0
 17 18  1  0
 18 19  1  0
 19 20  2  0
 20 21  1  0
 21 22  1  0
 21 23  2  0
 23 24  1  0
 24 25  2  0
 25 26  1  0
  7  2  1  0
 16  8  1  0
 26 17  2  0
 26  6  1  0
 16 12  2  0
 25 19  1  0
  3 27  1  0
 10 28  1  0
 11 29  1  0
 13 30  1  0
 14 31  1  0
 15 32  1  0
 18 33  1  0
 20 34  1  0
 22 35  1  0
 23 36  1  0
 24 37  1  0
M  END
>  <vina_affinity>  (23) 
-10.429

$$$$
act_134677
     RDKit          3D

 49 51  0  0  0  0  0  0  0  0999 V2000
   -1.4890   32.3620    9.5400 C   0  0  0  0  0  0  0  0  0  0  0  0
   -1.8830   30.9930    8.9860 C   0  0  0  0  0  0  0  0  0  0  0  0
   -3.4000   30.8180    8.9440 C   0  0  0  0  0  0  0  0  0  0  0  0
   -1.2230   29.9040    9.6910 N   0  0  0  0  0  0  0  0  0  0  0  0
   -1.7890   29.1460   10.6820 C   0  0  0  0  0  0  0  0  0  0  0  0
   -0.9590   28.2360   11.1400 N   0  0  0  0  0  0  0  0  0  0  0  0
    0.2030   28.4070   10.4100 C   0  0  0  0  0  0  0  0  0  0  0  0
    1.4540   27.7610   10.4160 C   0  0  0  0  0  0  0  0  0  0  0  0
    1.8470   26.6840   11.2130 N   0  0  0  0  0  0  0  0  0  0  0  0
    1.2150   25.3950   11.0000 C   0  0  0  0  0  0  0  0  0  0  0  0
    0.6780   24.8380   12.3200 C   0  0  0  0  0  0  0  0  0  0  0  0
    0.5360   23.3440   12.0610 C   0  0  0  0  0  0  0  0  0  0  0  0
    1.5780   23.0060   10.9960 C   0  0  0  0  0  0  0  0  0  0  0  0
    2.2360   24.3270   10.6130 C   0  0  0  0  0  0  0  0  0  0  0  0
    2.3980   28.2130    9.5500 N   0  0  0  0  0  0  0  0  0  0  0  0
    2.1290   29.2380    8.7160 C   0  0  0  0  0  0  0  0  0  0  0  0
    3.1110   29.6840    7.8360 N   0  0  0  0  0  0  0  0  0  0  0  0
    4.3660   28.9570    7.9290 C   0  0  0  0  0  0  0  0  0  0  0  0
    4.4880   28.0130    6.7350 C   0  0  0  0  0  0  0  0  0  0  0  0
    4.8510   26.6040    7.1790 C   0  0  0  0  0  0  0  0  0  0  0  0
    4.6260   26.4670    8.5760 O   0  0  0  0  0  0  0  0  0  0  0  0
    0.9670   29.9020    8.6380 N   0  0  0  0  0  0  0  0  0  0  0  0
    0.0540   29.4460    9.5060 C   0  0  0  0  0  0  0  0  0  0  0  0
   -1.4984   32.3292   10.6395 H   0  0  0  0  0  0  0  0  0  0  0  0
   -0.4794   32.6226    9.1896 H   0  0  0  0  0  0  0  0  0  0  0  0
   -2.2056   33.1194    9.1896 H   0  0  0  0  0  0  0  0  0  0  0  0
   -1.5255   30.9513    7.9466 H   0  0  0  0  0  0  0  0  0  0  0  0
   -3.7924   30.7727    9.9706 H   0  0  0  0  0  0  0  0  0  0  0  0
   -3.8529   31.6699    8.4156 H   0  0  0  0  0  0  0  0  0  0  0  0
   -3.6470   29.8854    8.4156 H   0  0  0  0  0  0  0  0  0  0  0  0
   -2.8163   29.2829   11.0506 H   0  0  0  0  0  0  0  0  0  0  0  0
    1.8670   27.0180   12.1720 H   0  0  0  0  0  0  0  0  0  0  0  0
    0.4490   25.5731   10.2309 H   0  0  0  0  0  0  0  0  0  0  0  0
    1.3859   25.0267   13.1405 H   0  0  0  0  0  0  0  0  0  0  0  0
   -0.2703   25.3066   12.6218 H   0  0  0  0  0  0  0  0  0  0  0  0
    0.7311   22.7752   12.9821 H   0  0  0  0  0  0  0  0  0  0  0  0
   -0.4805   23.0850   11.7298 H   0  0  0  0  0  0  0  0  0  0  0  0
    2.3270   22.3102   11.4021 H   0  0  0  0  0  0  0  0  0  0  0  0
    1.1174   22.5190   10.1238 H   0  0  0  0  0  0  0  0  0  0  0  0
    3.1748   24.4683   11.1687 H   0  0  0  0  0  0  0  0  0  0  0  0
    2.4968   24.3680    9.5452 H   0  0  0  0  0  0  0  0  0  0  0  0
    2.6730   29.6790    6.9210 H   0  0  0  0  0  0  0  0  0  0  0  0
    5.2049   29.6685    7.9229 H   0  0  0  0  0  0  0  0  0  0  0  0
    4.3891   28.3768    8.8632 H   0  0  0  0  0  0  0  0  0  0  0  0
    3.5265   27.9840    6.2015 H   0  0  0  0  0  0  0  0  0  0  0  0
    5.2869   28.3864    6.0775 H   0  0  0  0  0  0  0  0  0  0  0  0
    4.2283   25.8780    6.6358 H   0  0  0  0  0  0  0  0  0  0  0  0
    5.9130   26.4167    6.9618 H   0  0  0  0  0  0  0  0  0  0  0  0
    5.1280   27.1690    9.0250 H   0  0  0  0  0  0  0  0  0  0  0  0
  1  2  1  0
  2  3  1  0
  2  4  1  0
  4  5  1  0
  5  6  2  0
  6  7  1  0
  7  8  2  0
  8  9  1  0
  9 10  1  0
 10 11  1  0
 11 12  1  0
 12 13  1  0
 13 14  1  0
  8 15  1  0
 15 16  2  0
 16 17  1  0
 17 18  1  0
 18 19  1  0
 19 20  1  0
 20 21  1  0
 16 22  1  0
 22 23  2  0
 23  4  1  0
 23  7  1  0
 14 10  1  0
  1 24  1  0
  1 25  1  0
  1 26  1  0
  2 27  1  0
  3 28  1  0
  3 29  1  0
  3 30  1  0
  5 31  1  0
  9 32  1  0
 10 33  1  0
 11 34  1  0
 11 35  1  0
 12 36  1  0
 12 37  1  0
 13 38  1  0
 13 39  1  0
 14 40  1  0
 14 41  1  0
 17 42  1  0
 18 43  1  0
 18 44  1  0
 19 45  1  0
 19 46  1  0
 20 47  1  0
 20 48  1  0
 21 49  1  0
M  END
>  <vina_affinity>  (24) 
-6.924

$$$$
act_165159
     RDKit          3D

 41 43  0  0  0  0  0  0  0  0999 V2000
   -1.3110   31.0890    8.5830 C   0  0  0  0  0  0  0  0  0  0  0  0
   -2.0370   30.9850    9.9360 C   0  0  0  0  0  0  0  0  0  0  0  0
   -3.4210   30.3450    9.7270 C   0  0  0  0  0  0  0  0  0  0  0  0
   -2.2330   32.4040   10.5000 C   0  0  0  0  0  0  0  0  0  0  0  0
   -1.2260   30.1430   10.8780 C   0  0  0  0  0  0  0  0  0  0  0  0
    0.1040   30.0580   11.2280 C   0  0  0  0  0  0  0  0  0  0  0  0
    0.2900   29.0700   12.1600 N   0  0  0  0  0  0  0  0  0  0  0  0
   -0.9190   28.5760   12.3390 C   0  0  0  0  0  0  0  0  0  0  0  0
   -1.3440   27.4560   13.2180 C   0  0  0  0  0  0  0  0  0  0  0  0
   -1.6720   25.9170   12.2980 S   0  0  0  0  0  0  0  0  0  0  0  0
   -0.0840   25.5490   11.6540 C   0  0  0  0  0  0  0  0  0  0  0  0
    0.9570   24.9610   12.3370 C   0  0  0  0  0  0  0  0  0  0  0  0
    2.1210   24.7780   11.6150 N   0  0  0  0  0  0  0  0  0  0  0  0
    1.9750   25.2230   10.3850 C   0  0  0  0  0  0  0  0  0  0  0  0
    2.8870   25.2060    9.3840 N   0  0  0  0  0  0  0  0  0  0  0  0
    3.6070   26.2710    8.8100 C   0  0  0  0  0  0  0  0  0  0  0  0
    3.5050   27.5990    9.2220 C   0  0  0  0  0  0  0  0  0  0  0  0
    4.2620   28.5690    8.5790 C   0  0  0  0  0  0  0  0  0  0  0  0
    5.1080   28.3150    7.5620 N   0  0  0  0  0  0  0  0  0  0  0  0
    5.1980   27.0300    7.1710 C   0  0  0  0  0  0  0  0  0  0  0  0
    4.4810   25.9940    7.7510 C   0  0  0  0  0  0  0  0  0  0  0  0
    0.4170   25.9090   10.0620 S   0  0  0  0  0  0  0  0  0  0  0  0
   -1.8960   29.1920   11.6040 O   0  0  0  0  0  0  0  0  0  0  0  0
   -0.2355   31.2431    8.7549 H   0  0  0  0  0  0  0  0  0  0  0  0
   -1.4619   30.1601    8.0135 H   0  0  0  0  0  0  0  0  0  0  0  0
   -1.7167   31.9382    8.0135 H   0  0  0  0  0  0  0  0  0  0  0  0
   -3.8785   30.1334   10.7047 H   0  0  0  0  0  0  0  0  0  0  0  0
   -4.0638   31.0373    9.1635 H   0  0  0  0  0  0  0  0  0  0  0  0
   -3.3098   29.4069    9.1635 H   0  0  0  0  0  0  0  0  0  0  0  0
   -2.2277   32.3656   11.5993 H   0  0  0  0  0  0  0  0  0  0  0  0
   -1.4160   33.0530   10.1518 H   0  0  0  0  0  0  0  0  0  0  0  0
   -3.1954   32.8073   10.1518 H   0  0  0  0  0  0  0  0  0  0  0  0
    0.9032   30.6929   10.8178 H   0  0  0  0  0  0  0  0  0  0  0  0
   -0.5469   27.2634   13.9512 H   0  0  0  0  0  0  0  0  0  0  0  0
   -2.2838   27.7565   13.7042 H   0  0  0  0  0  0  0  0  0  0  0  0
    0.8678   24.6564   13.3902 H   0  0  0  0  0  0  0  0  0  0  0  0
    3.1150   24.2950    9.0060 H   0  0  0  0  0  0  0  0  0  0  0  0
    2.8322   27.8751   10.0473 H   0  0  0  0  0  0  0  0  0  0  0  0
    4.1649   29.6098    8.9214 H   0  0  0  0  0  0  0  0  0  0  0  0
    5.8802   26.7874    6.3429 H   0  0  0  0  0  0  0  0  0  0  0  0
    4.5977   24.9641    7.3827 H   0  0  0  0  0  0  0  0  0  0  0  0
  1  2  1  0
  2  3  1  0
  2  4  1  0
  2  5  1  0
  5  6  2  0
  6  7  1  0
  7  8  2  0
  8  9  1  0
  9 10  1  0
 10 11  1  0
 11 12  2  0
 12 13  1  0
 13 14  2  0
 14 15  1  0
 15 16  1  0
 16 17  2  0
 17 18  1  0
 18 19  2  0
 19 20  1  0
 20 21  2  0
 14 22  1  0
  8 23  1  0
 23  5  1  0
 22 11  1  0
 21 16  1  0
  1 24  1  0
  1 25  1  0
  1 26  1  0
  3 27  1  0
  3 28  1  0
  3 29  1  0
  4 30  1  0
  4 31  1  0
  4 32  1  0
  6 33  1  0
  9 34  1  0
  9 35  1  0
 12 36  1  0
 15 37  1  0
 17 38  1  0
 18 39  1  0
 20 40  1  0
 21 41  1  0
M  END
>  <vina_affinity>  (25) 
-6.982

$$$$
act_248344
     RDKit          3D

 49 53  0  0  0  0  0  0  0  0999 V2000
    7.0930   25.9430    7.8360 C   0  0  0  0  0  0  0  0  0  0  0  0
    6.2270   26.1130    6.7210 O   0  0  0  0  0  0  0  0  0  0  0  0
    5.2370   27.0480    6.8430 C   0  0  0  0  0  0  0  0  0  0  0  0
    4.5080   27.6130    5.7990 C   0  0  0  0  0  0  0  0  0  0  0  0
    3.5160   28.5680    6.0670 C   0  0  0  0  0  0  0  0  0  0  0  0
    3.2400   28.9740    7.3800 C   0  0  0  0  0  0  0  0  0  0  0  0
    2.2120   29.9720    7.6610 C   0  0  0  0  0  0  0  0  0  0  0  0
    2.2880   31.2980    7.2490 N   0  0  0  0  0  0  0  0  0  0  0  0
    1.2250   32.0740    7.6040 N   0  0  0  0  0  0  0  0  0  0  0  0
    0.4750   31.2160    8.2740 C   0  0  0  0  0  0  0  0  0  0  0  0
    1.0270   29.9310    8.3470 C   0  0  0  0  0  0  0  0  0  0  0  0
    0.1530   29.0610    9.0880 C   0  0  0  0  0  0  0  0  0  0  0  0
    0.2800   27.8830    9.3720 O   0  0  0  0  0  0  0  0  0  0  0  0
   -1.0040   29.9390    9.4680 C   0  0  0  0  0  0  0  0  0  0  0  0
   -2.1370   29.6050   10.1930 C   0  0  0  0  0  0  0  0  0  0  0  0
   -2.2800   28.2800   10.6580 N   0  0  0  0  0  0  0  0  0  0  0  0
   -1.8230   27.7410   11.8490 C   0  0  0  0  0  0  0  0  0  0  0  0
   -1.1920   28.3650   12.6930 O   0  0  0  0  0  0  0  0  0  0  0  0
   -2.1820   26.4040   11.9410 N   0  0  0  0  0  0  0  0  0  0  0  0
   -1.8960   25.4990   12.9850 C   0  0  0  0  0  0  0  0  0  0  0  0
   -0.7450   24.7100   12.8450 C   0  0  0  0  0  0  0  0  0  0  0  0
   -0.3870   23.7880   13.8330 C   0  0  0  0  0  0  0  0  0  0  0  0
   -1.1750   23.6460   14.9710 C   0  0  0  0  0  0  0  0  0  0  0  0
   -2.3190   24.4250   15.1190 C   0  0  0  0  0  0  0  0  0  0  0  0
   -2.6780   25.3490   14.1310 C   0  0  0  0  0  0  0  0  0  0  0  0
   -3.0580   30.6380   10.3980 C   0  0  0  0  0  0  0  0  0  0  0  0
   -2.8340   31.9430    9.8910 C   0  0  0  0  0  0  0  0  0  0  0  0
   -1.6830   32.2590    9.1630 C   0  0  0  0  0  0  0  0  0  0  0  0
   -0.7790   31.2440    8.9610 C   0  0  0  0  0  0  0  0  0  0  0  0
    3.9750   28.3950    8.4200 C   0  0  0  0  0  0  0  0  0  0  0  0
    4.9640   27.4450    8.1520 C   0  0  0  0  0  0  0  0  0  0  0  0
    6.5183   26.0558    8.7671 H   0  0  0  0  0  0  0  0  0  0  0  0
    7.5423   24.9395    7.8017 H   0  0  0  0  0  0  0  0  0  0  0  0
    7.8883   26.7022    7.8017 H   0  0  0  0  0  0  0  0  0  0  0  0
    4.7108   27.3094    4.7614 H   0  0  0  0  0  0  0  0  0  0  0  0
    2.9459   29.0050    5.2339 H   0  0  0  0  0  0  0  0  0  0  0  0
    3.0430   31.7360    6.7330 H   0  0  0  0  0  0  0  0  0  0  0  0
   -2.7630   27.6500   10.0240 H   0  0  0  0  0  0  0  0  0  0  0  0
   -2.7310   26.0340   11.1820 H   0  0  0  0  0  0  0  0  0  0  0  0
   -0.1172   24.8178   11.9482 H   0  0  0  0  0  0  0  0  0  0  0  0
    0.5179   23.1746   13.7107 H   0  0  0  0  0  0  0  0  0  0  0  0
   -0.8952   22.9215   15.7500 H   0  0  0  0  0  0  0  0  0  0  0  0
   -2.9442   24.3138   16.0172 H   0  0  0  0  0  0  0  0  0  0  0  0
   -3.5829   25.9613   14.2587 H   0  0  0  0  0  0  0  0  0  0  0  0
   -3.9775   30.4329   10.9659 H   0  0  0  0  0  0  0  0  0  0  0  0
   -3.5843   32.7261   10.0750 H   0  0  0  0  0  0  0  0  0  0  0  0
   -1.5093   33.2719    8.7706 H   0  0  0  0  0  0  0  0  0  0  0  0
    3.7722   28.6908    9.4599 H   0  0  0  0  0  0  0  0  0  0  0  0
    5.5342   27.0049    8.9834 H   0  0  0  0  0  0  0  0  0  0  0  0
  1  2  1  0
  2  3  1  0
  3  4  2  0
  4  5  1  0
  5  6  2  0
  6  7  1  0
  7  8  1  0
  8  9  1  0
  9 10  2  0
 10 11  1  0
 11 12  1  0
 12 13  2  0
 12 14  1  0
 14 15  2  0
 15 16  1  0
 16 17  1  0
 17 18  2  0
 17 19  1  0
 19 20  1  0
 20 21  2  0
 21 22  1  0
 22 23  2  0
 23 24  1  0
 24 25  2  0
 15 26  1  0
 26 27  2  0
 27 28  1  0
 28 29  2  0
  6 30  1  0
 30 31  2  0
 31  3  1  0
 11  7  2  0
 29 14  1  0
 29 10  1  0
 25 20  1  0
  1 32  1  0
  1 33  1  0
  1 34  1  0
  4 35  1  0
  5 36  1  0
  8 37  1  0
 16 38  1  0
 19 39  1  0
 21 40  1  0
 22 41  1  0
 23 42  1  0
 24 43  1  0
 25 44  1  0
 26 45  1  0
 27 46  1  0
 28 47  1  0
 30 48  1  0
 31 49  1  0
M  END
>  <vina_affinity>  (26) 
-10.460

$$$$
act_579280
     RDKit          3D

 39 41  0  0  0  0  0  0  0  0999 V2000
    5.7330   25.5420    5.9570 C   0  0  0  0  0  0  0  0  0  0  0  0
    5.2220   26.6940    6.7310 C   0  0  0  0  0  0  0  0  0  0  0  0
    4.4790   27.7970    6.3710 C   0  0  0  0  0  0  0  0  0  0  0  0
    4.3020   28.5450    7.5580 C   0  0  0  0  0  0  0  0  0  0  0  0
    3.6230   29.6940    7.7170 N   0  0  0  0  0  0  0  0  0  0  0  0
    2.3080   30.0410    8.0070 C   0  0  0  0  0  0  0  0  0  0  0  0
    1.6290   31.1270    7.4720 C   0  0  0  0  0  0  0  0  0  0  0  0
    0.3420   31.4330    7.7690 N   0  0  0  0  0  0  0  0  0  0  0  0
   -0.2590   30.5940    8.6560 C   0  0  0  0  0  0  0  0  0  0  0  0
   -1.6250   30.9070    8.9610 C   0  0  0  0  0  0  0  0  0  0  0  0
   -2.7270   31.1550    9.2380 N   0  0  0  0  0  0  0  0  0  0  0  0
    0.4000   29.5110    9.2560 C   0  0  0  0  0  0  0  0  0  0  0  0
   -0.2500   28.6400   10.1280 N   0  0  0  0  0  0  0  0  0  0  0  0
    0.3400   28.3960   11.4600 C   0  0  1  0  0  0  0  0  0  0  0  0
    0.3160   29.6620   12.3200 C   0  0  0  0  0  0  0  0  0  0  0  0
   -0.4710   27.3130   12.1850 C   0  0  0  0  0  0  0  0  0  0  0  0
   -0.8090   26.2000   11.4950 N   0  0  0  0  0  0  0  0  0  0  0  0
   -1.5200   25.2680   12.1690 C   0  0  0  0  0  0  0  0  0  0  0  0
   -1.8880   25.4030   13.4840 C   0  0  0  0  0  0  0  0  0  0  0  0
   -2.5900   24.4610   14.1220 F   0  0  0  0  0  0  0  0  0  0  0  0
   -1.4890   26.5580   14.1090 C   0  0  0  0  0  0  0  0  0  0  0  0
   -0.7750   27.5270   13.4920 N   0  0  0  0  0  0  0  0  0  0  0  0
    1.6840   29.2410    8.9070 N   0  0  0  0  0  0  0  0  0  0  0  0
    4.8650   27.9220    8.5960 N   0  0  0  0  0  0  0  0  0  0  0  0
    5.4310   26.8260    8.0730 N   0  0  0  0  0  0  0  0  0  0  0  0
    6.0798   24.7603    6.6488 H   0  0  0  0  0  0  0  0  0  0  0  0
    4.9287   25.1403    5.3232 H   0  0  0  0  0  0  0  0  0  0  0  0
    6.5707   25.8686    5.3232 H   0  0  0  0  0  0  0  0  0  0  0  0
    4.1016   28.0446    5.3679 H   0  0  0  0  0  0  0  0  0  0  0  0
    4.1840   30.5370    7.6690 H   0  0  0  0  0  0  0  0  0  0  0  0
    2.1664   31.7772    6.7660 H   0  0  0  0  0  0  0  0  0  0  0  0
   -1.2560   28.7800   10.2050 H   0  0  0  0  0  0  0  0  0  0  0  0
    1.3831   28.0790   11.3136 H   0  0  0  0  0  0  0  0  0  0  0  0
    0.3213   29.3827   13.3839 H   0  0  0  0  0  0  0  0  0  0  0  0
    1.2027   30.2736   12.0970 H   0  0  0  0  0  0  0  0  0  0  0  0
   -0.5933   30.2395   12.0970 H   0  0  0  0  0  0  0  0  0  0  0  0
   -1.8190   24.3538   11.6352 H   0  0  0  0  0  0  0  0  0  0  0  0
   -1.7636   26.7028   15.1643 H   0  0  0  0  0  0  0  0  0  0  0  0
    5.9350   26.2020    8.6950 H   0  0  0  0  0  0  0  0  0  0  0  0
  1  2  1  0
  2  3  2  0
  3  4  1  0
  4  5  1  0
  5  6  1  0
  6  7  2  0
  7  8  1  0
  8  9  2  0
  9 10  1  0
 10 11  3  0
  9 12  1  0
 12 13  1  0
 13 14  1  0
 14 15  1  0
 14 16  1  0
 16 17  2  0
 17 18  1  0
 18 19  2  0
 19 20  1  0
 19 21  1  0
 21 22  2  0
 12 23  2  0
  4 24  2  0
 24 25  1  0
 25  2  1  0
 23  6  1  0
 22 16  1  0
  1 26  1  0
  1 27  1  0
  1 28  1  0
  3 29  1  0
  5 30  1  0
  7 31  1  0
 13 32  1  0
 14 33  1  6
 15 34  1  0
 15 35  1  0
 15 36  1  0
 18 37  1  0
 21 38  1  0
 25 39  1  0
M  END
>  <vina_affinity>  (27) 
-7.890

$$$$
act_211080
     RDKit          3D

 46 48  0  0  0  0  0  0  0  0999 V2000
   -5.3530   22.9340   17.9580 C   0  0  0  0  0  0  0  0  0  0  0  0
   -5.1010   22.7010   16.4580 C   0  0  0  0  0  0  0  0  0  0  0  0
   -6.1750   21.7350   15.9260 C   0  0  0  0  0  0  0  0  0  0  0  0
   -5.2230   24.0380   15.7070 C   0  0  0  0  0  0  0  0  0  0  0  0
   -3.7260   22.1350   16.2510 C   0  0  0  0  0  0  0  0  0  0  0  0
   -3.1270   20.9050   16.4140 C   0  0  0  0  0  0  0  0  0  0  0  0
   -1.8000   20.9700   16.0660 N   0  0  0  0  0  0  0  0  0  0  0  0
   -1.6300   22.2290   15.7130 C   0  0  0  0  0  0  0  0  0  0  0  0
   -0.3950   22.9300   15.2710 C   0  0  0  0  0  0  0  0  0  0  0  0
    0.4630   22.0570   13.9190 S   0  0  0  0  0  0  0  0  0  0  0  0
    0.4600   23.2750   12.6590 C   0  0  0  0  0  0  0  0  0  0  0  0
    1.5270   23.6250   11.8570 C   0  0  0  0  0  0  0  0  0  0  0  0
    1.2850   24.6340   10.9400 N   0  0  0  0  0  0  0  0  0  0  0  0
    0.0470   25.0480   11.0810 C   0  0  0  0  0  0  0  0  0  0  0  0
   -0.4470   26.0620   10.3010 N   0  0  0  0  0  0  0  0  0  0  0  0
   -0.5460   27.3900   10.6550 C   0  0  0  0  0  0  0  0  0  0  0  0
   -0.1960   27.8830   11.7190 O   0  0  0  0  0  0  0  0  0  0  0  0
   -1.1390   28.1080    9.6260 N   0  0  0  0  0  0  0  0  0  0  0  0
   -1.2140   29.5200    9.5650 C   0  0  0  0  0  0  0  0  0  0  0  0
   -0.2380   30.3410    8.9950 C   0  0  0  0  0  0  0  0  0  0  0  0
    0.8320   29.8260    8.3750 F   0  0  0  0  0  0  0  0  0  0  0  0
   -0.3920   31.7310    8.9730 C   0  0  0  0  0  0  0  0  0  0  0  0
   -1.5390   32.3180    9.5070 C   0  0  0  0  0  0  0  0  0  0  0  0
   -2.5380   31.5110   10.0470 C   0  0  0  0  0  0  0  0  0  0  0  0
   -2.3710   30.1280   10.0630 C   0  0  0  0  0  0  0  0  0  0  0  0
   -3.3460   29.3640   10.5830 F   0  0  0  0  0  0  0  0  0  0  0  0
   -0.9040   24.2050   12.2140 S   0  0  0  0  0  0  0  0  0  0  0  0
   -2.7650   22.9890   15.7790 O   0  0  0  0  0  0  0  0  0  0  0  0
   -4.6708   22.3032   18.5467 H   0  0  0  0  0  0  0  0  0  0  0  0
   -5.1745   23.9921   18.1998 H   0  0  0  0  0  0  0  0  0  0  0  0
   -6.3939   22.6732   18.1998 H   0  0  0  0  0  0  0  0  0  0  0  0
   -6.6973   21.2652   16.7725 H   0  0  0  0  0  0  0  0  0  0  0  0
   -6.8982   22.2925   15.3127 H   0  0  0  0  0  0  0  0  0  0  0  0
   -5.6970   20.9570   15.3127 H   0  0  0  0  0  0  0  0  0  0  0  0
   -5.2981   24.8609   16.4331 H   0  0  0  0  0  0  0  0  0  0  0  0
   -4.3346   24.1862   15.0754 H   0  0  0  0  0  0  0  0  0  0  0  0
   -6.1235   24.0230   15.0754 H   0  0  0  0  0  0  0  0  0  0  0  0
   -3.6389   19.9996   16.7720 H   0  0  0  0  0  0  0  0  0  0  0  0
   -0.6674   23.9372   14.9227 H   0  0  0  0  0  0  0  0  0  0  0  0
    0.2910   22.9688   16.1300 H   0  0  0  0  0  0  0  0  0  0  0  0
    2.5076   23.1337   11.9408 H   0  0  0  0  0  0  0  0  0  0  0  0
   -0.4420   25.8410    9.3180 H   0  0  0  0  0  0  0  0  0  0  0  0
   -1.8740   27.6150    9.1320 H   0  0  0  0  0  0  0  0  0  0  0  0
    0.3937   32.3630    8.5333 H   0  0  0  0  0  0  0  0  0  0  0  0
   -1.6542   33.4119    9.5018 H   0  0  0  0  0  0  0  0  0  0  0  0
   -3.4528   31.9629   10.4581 H   0  0  0  0  0  0  0  0  0  0  0  0
  1  2  1  0
  2  3  1  0
  2  4  1  0
  2  5  1  0
  5  6  2  0
  6  7  1  0
  7  8  2  0
  8  9  1  0
  9 10  1  0
 10 11  1  0
 11 12  2  0
 12 13  1  0
 13 14  2  0
 14 15  1  0
 15 16  1  0
 16 17  2  0
 16 18  1  0
 18 19  1  0
 19 20  2  0
 20 21  1  0
 20 22  1  0
 22 23  2  0
 23 24  1  0
 24 25  2  0
 25 26  1  0
 14 27  1  0
  8 28  1  0
 28  5  1  0
 27 11  1  0
 25 19  1  0
  1 29  1  0
  1 30  1  0
  1 31  1  0
  3 32  1  0
  3 33  1  0
  3 34  1  0
  4 35  1  0
  4 36  1  0
  4 37  1  0
  6 38  1  0
  9 39  1  0
  9 40  1  0
 12 41  1  0
 15 42  1  0
 18 43  1  0
 22 44  1  0
 23 45  1  0
 24 46  1  0
M  END
>  <vina_affinity>  (28) 
-8.030

$$$$
act_71726
     RDKit          3D

 37 38  0  0  0  0  0  0  0  0999 V2000
   -6.5070   22.5150   16.9200 C   0  0  0  0  0  0  0  0  0  0  0  0
   -5.2500   23.3500   16.8970 C   0  0  0  0  0  0  0  0  0  0  0  0
   -4.9090   23.9780   17.8930 O   0  0  0  0  0  0  0  0  0  0  0  0
   -4.6250   23.3140   15.6740 N   0  0  0  0  0  0  0  0  0  0  0  0
   -3.4730   23.9630   15.3100 C   0  0  0  0  0  0  0  0  0  0  0  0
   -2.3140   23.3490   15.3700 N   0  0  0  0  0  0  0  0  0  0  0  0
   -1.3170   24.2170   14.9610 C   0  0  0  0  0  0  0  0  0  0  0  0
   -1.7390   25.4780   14.5940 C   0  0  0  0  0  0  0  0  0  0  0  0
   -0.7700   26.8130   14.0090 S   0  0  0  0  0  0  0  0  0  0  0  0
   -1.7440   27.3250   12.5580 C   0  0  0  0  0  0  0  0  0  0  0  0
   -1.1490   28.5070   11.8820 C   0  0  0  0  0  0  0  0  0  0  0  0
    0.1140   28.8780   11.8160 N   0  0  0  0  0  0  0  0  0  0  0  0
    0.0800   30.0310   11.0740 C   0  0  0  0  0  0  0  0  0  0  0  0
   -1.2160   30.3290   10.7130 C   0  0  0  0  0  0  0  0  0  0  0  0
   -1.8880   31.4160    9.9260 C   0  0  0  0  0  0  0  0  0  0  0  0
   -0.9350   31.9280    8.8320 C   0  0  0  0  0  0  0  0  0  0  0  0
   -3.1690   30.8660    9.2730 C   0  0  0  0  0  0  0  0  0  0  0  0
   -2.2700   32.5970   10.8360 C   0  0  0  0  0  0  0  0  0  0  0  0
   -2.0170   29.3470   11.2390 O   0  0  0  0  0  0  0  0  0  0  0  0
   -3.4390   25.5740   14.7630 S   0  0  0  0  0  0  0  0  0  0  0  0
   -6.7992   22.3209   17.9626 H   0  0  0  0  0  0  0  0  0  0  0  0
   -7.3159   23.0559   16.4071 H   0  0  0  0  0  0  0  0  0  0  0  0
   -6.3220   21.5596   16.4071 H   0  0  0  0  0  0  0  0  0  0  0  0
   -5.0140   22.7610   14.9230 H   0  0  0  0  0  0  0  0  0  0  0  0
   -0.2580   23.9211   14.9305 H   0  0  0  0  0  0  0  0  0  0  0  0
   -1.7845   26.4895   11.8437 H   0  0  0  0  0  0  0  0  0  0  0  0
   -2.7517   27.6001   12.9029 H   0  0  0  0  0  0  0  0  0  0  0  0
    0.9613   30.6319   10.8055 H   0  0  0  0  0  0  0  0  0  0  0  0
   -0.0583   32.3990    9.3005 H   0  0  0  0  0  0  0  0  0  0  0  0
   -0.6076   31.0843    8.2067 H   0  0  0  0  0  0  0  0  0  0  0  0
   -1.4578   32.6667    8.2067 H   0  0  0  0  0  0  0  0  0  0  0  0
   -3.8783   30.5614   10.0566 H   0  0  0  0  0  0  0  0  0  0  0  0
   -3.6263   31.6471    8.6479 H   0  0  0  0  0  0  0  0  0  0  0  0
   -2.9177   29.9965    8.6479 H   0  0  0  0  0  0  0  0  0  0  0  0
   -2.1723   32.2949   11.8892 H   0  0  0  0  0  0  0  0  0  0  0  0
   -1.6008   33.4465   10.6346 H   0  0  0  0  0  0  0  0  0  0  0  0
   -3.3099   32.8937   10.6346 H   0  0  0  0  0  0  0  0  0  0  0  0
  1  2  1  0
  2  3  2  0
  2  4  1  0
  4  5  1  0
  5  6  2  0
  6  7  1  0
  7  8  2  0
  8  9  1  0
  9 10  1  0
 10 11  1  0
 11 12  2  0
 12 13  1  0
 13 14  2  0
 14 15  1  0
 15 16  1  0
 15 17  1  0
 15 18  1  0
 14 19  1  0
  8 20  1  0
 20  5  1  0
 19 11  1  0
  1 21  1  0
  1 22  1  0
  1 23  1  0
  4 24  1  0
  7 25  1  0
 10 26  1  0
 10 27  1  0
 13 28  1  0
 16 29  1  0
 16 30  1  0
 16 31  1  0
 17 32  1  0
 17 33  1  0
 17 34  1  0
 18 35  1  0
 18 36  1  0
 18 37  1  0
M  END
>  <vina_affinity>  (29) 
-6.904

$$$$
act_248288
     RDKit          3D

 52 56  0  0  0  0  0  0  0  0999 V2000
   -4.6920   24.8140   14.2190 N   0  0  0  0  0  0  0  0  0  0  0  0
   -3.4950   24.9320   14.8640 C   0  0  0  0  0  0  0  0  0  0  0  0
   -3.1590   24.0960   15.6940 O   0  0  0  0  0  0  0  0  0  0  0  0
   -2.6730   26.1610   14.4870 C   0  0  0  0  0  0  0  0  0  0  0  0
   -1.2880   26.1390   15.1440 C   0  0  0  0  0  0  0  0  0  0  0  0
   -0.3390   25.1450   14.4690 C   0  0  0  0  0  0  0  0  0  0  0  0
   -0.2490   25.4130   13.0300 N   0  0  0  0  0  0  0  0  0  0  0  0
    0.7900   24.6090   12.3510 C   0  0  0  0  0  0  0  0  0  0  0  0
    1.3010   25.2220   11.0380 C   0  0  0  0  0  0  0  0  0  0  0  0
    1.4000   24.5470   10.0160 O   0  0  0  0  0  0  0  0  0  0  0  0
    1.6240   26.5610   11.1590 N   0  0  0  0  0  0  0  0  0  0  0  0
    2.1610   27.4110   10.1720 C   0  0  0  0  0  0  0  0  0  0  0  0
    3.4150   27.2600    9.5730 C   0  0  0  0  0  0  0  0  0  0  0  0
    3.8790   28.1670    8.5870 C   0  0  0  0  0  0  0  0  0  0  0  0
    3.1070   29.2560    8.1660 C   0  0  0  0  0  0  0  0  0  0  0  0
    1.8740   29.4050    8.7530 C   0  0  0  0  0  0  0  0  0  0  0  0
    1.4120   28.4930    9.7410 C   0  0  0  0  0  0  0  0  0  0  0  0
    0.0410   28.9250   10.1860 C   0  0  0  0  0  0  0  0  0  0  0  0
   -0.6530   28.3660   11.0190 O   0  0  0  0  0  0  0  0  0  0  0  0
   -0.2340   30.1050    9.4100 C   0  0  0  0  0  0  0  0  0  0  0  0
   -1.1510   31.1080    9.1420 C   0  0  0  0  0  0  0  0  0  0  0  0
   -2.5300   31.2570    9.8290 C   0  0  0  0  0  0  0  0  0  0  0  0
   -3.2740   30.0210   10.2640 C   0  0  0  0  0  0  0  0  0  0  0  0
   -3.7710   30.8200    9.0950 C   0  0  0  0  0  0  0  0  0  0  0  0
   -0.6910   31.9640    8.2100 N   0  0  0  0  0  0  0  0  0  0  0  0
    0.5380   31.4800    7.8850 N   0  0  0  0  0  0  0  0  0  0  0  0
    0.8320   30.3690    8.5890 C   0  0  0  0  0  0  0  0  0  0  0  0
   -1.5570   25.2960   12.3770 C   0  0  0  0  0  0  0  0  0  0  0  0
   -2.5360   26.3140   12.9680 C   0  0  0  0  0  0  0  0  0  0  0  0
   -5.1160   25.5900   13.7300 H   0  0  0  0  0  0  0  0  0  0  0  0
   -5.2930   24.0570   14.5190 H   0  0  0  0  0  0  0  0  0  0  0  0
   -3.2232   27.0335   14.8692 H   0  0  0  0  0  0  0  0  0  0  0  0
   -0.8499   27.1459   15.0791 H   0  0  0  0  0  0  0  0  0  0  0  0
   -1.4172   25.8231   16.1897 H   0  0  0  0  0  0  0  0  0  0  0  0
    0.6611   25.2385   14.9174 H   0  0  0  0  0  0  0  0  0  0  0  0
   -0.7284   24.1269   14.6164 H   0  0  0  0  0  0  0  0  0  0  0  0
    1.6437   24.4990   13.0358 H   0  0  0  0  0  0  0  0  0  0  0  0
    0.3259   23.6461   12.0914 H   0  0  0  0  0  0  0  0  0  0  0  0
    1.5280   26.9740   12.0890 H   0  0  0  0  0  0  0  0  0  0  0  0
    4.0564   26.4183    9.8735 H   0  0  0  0  0  0  0  0  0  0  0  0
    4.8723   28.0107    8.1409 H   0  0  0  0  0  0  0  0  0  0  0  0
    3.4702   29.9588    7.4017 H   0  0  0  0  0  0  0  0  0  0  0  0
   -2.2023   32.1839   10.3224 H   0  0  0  0  0  0  0  0  0  0  0  0
   -2.8310   29.0273   10.1020 H   0  0  0  0  0  0  0  0  0  0  0  0
   -3.7140   29.6713   11.2096 H   0  0  0  0  0  0  0  0  0  0  0  0
   -3.6921   30.4115    8.0767 H   0  0  0  0  0  0  0  0  0  0  0  0
   -4.7258   31.2977    8.8300 H   0  0  0  0  0  0  0  0  0  0  0  0
    1.0860   31.9740    7.1880 H   0  0  0  0  0  0  0  0  0  0  0  0
   -1.4432   25.4846   11.2993 H   0  0  0  0  0  0  0  0  0  0  0  0
   -1.9508   24.2821   12.5413 H   0  0  0  0  0  0  0  0  0  0  0  0
   -2.1728   27.3279   12.7441 H   0  0  0  0  0  0  0  0  0  0  0  0
   -3.5239   26.1378   12.5174 H   0  0  0  0  0  0  0  0  0  0  0  0
  1  2  1  0
  2  3  2  0
  2  4  1  0
  4  5  1  0
  5  6  1  0
  6  7  1  0
  7  8  1  0
  8  9  1  0
  9 10  2  0
  9 11  1  0
 11 12  1  0
 12 13  2  0
 13 14  1  0
 14 15  2  0
 15 16  1  0
 16 17  2  0
 17 18  1  0
 18 19  2  0
 18 20  1  0
 20 21  1  0
 21 22  1  0
 22 23  1  0
 23 24  1  0
 21 25  2  0
 25 26  1  0
 26 27  1  0
  7 28  1  0
 28 29  1  0
 29  4  1  0
 17 12  1  0
 27 20  2  0
 27 16  1  0
 24 22  1  0
  1 30  1  0
  1 31  1  0
  4 32  1  0
  5 33  1  0
  5 34  1  0
  6 35  1  0
  6 36  1  0
  8 37  1  0
  8 38  1  0
 11 39  1  0
 13 40  1  0
 14 41  1  0
 15 42  1  0
 22 43  1  0
 23 44  1  0
 23 45  1  0
 24 46  1  0
 24 47  1  0
 26 48  1  0
 28 49  1  0
 28 50  1  0
 29 51  1  0
 29 52  1  0
M  END
>  <vina_affinity>  (30) 
-9.136

$$$$
act_187198
     RDKit          3D

 29 30  0  0  0  0  0  0  0  0999 V2000
    4.1050   26.7880    4.6350 C   0  0  0  0  0  0  0  0  0  0  0  0
    4.0960   28.1930    5.2150 C   0  0  0  0  0  0  0  0  0  0  0  0
    4.4800   28.1920    6.6930 C   0  0  0  0  0  0  0  0  0  0  0  0
    3.4580   28.9120    7.5580 C   0  0  0  0  0  0  0  0  0  0  0  0
    3.3290   28.6830    8.7560 O   0  0  0  0  0  0  0  0  0  0  0  0
    2.7310   29.8230    6.8250 N   0  0  0  0  0  0  0  0  0  0  0  0
    1.7340   30.6300    7.3140 C   0  0  0  0  0  0  0  0  0  0  0  0
    0.5420   30.2870    7.9910 C   0  0  0  0  0  0  0  0  0  0  0  0
   -0.0750   31.4870    8.2380 C   0  0  0  0  0  0  0  0  0  0  0  0
   -1.4150   31.7090    8.9700 C   0  0  0  0  0  0  0  0  0  0  0  0
   -1.5200   32.8290    9.9710 C   0  0  0  0  0  0  0  0  0  0  0  0
   -1.5020   31.4040   10.4420 C   0  0  0  0  0  0  0  0  0  0  0  0
    0.7430   32.4500    7.7320 N   0  0  0  0  0  0  0  0  0  0  0  0
    1.8540   31.9530    7.1580 N   0  0  0  0  0  0  0  0  0  0  0  0
    4.1097   26.0534    5.4537 H   0  0  0  0  0  0  0  0  0  0  0  0
    3.2078   26.6412    4.0158 H   0  0  0  0  0  0  0  0  0  0  0  0
    5.0040   26.6527    4.0158 H   0  0  0  0  0  0  0  0  0  0  0  0
    4.8148   28.8134    4.6596 H   0  0  0  0  0  0  0  0  0  0  0  0
    3.0769   28.5969    5.1240 H   0  0  0  0  0  0  0  0  0  0  0  0
    4.5617   27.1500    7.0360 H   0  0  0  0  0  0  0  0  0  0  0  0
    5.4372   28.7250    6.7911 H   0  0  0  0  0  0  0  0  0  0  0  0
    2.9000   29.9520    5.8380 H   0  0  0  0  0  0  0  0  0  0  0  0
    0.1876   29.2811    8.2602 H   0  0  0  0  0  0  0  0  0  0  0  0
   -1.9814   31.4053    8.0773 H   0  0  0  0  0  0  0  0  0  0  0  0
   -0.6543   33.4811   10.1591 H   0  0  0  0  0  0  0  0  0  0  0  0
   -2.1960   33.6854   10.1111 H   0  0  0  0  0  0  0  0  0  0  0  0
   -0.6231   31.0123   10.9751 H   0  0  0  0  0  0  0  0  0  0  0  0
   -2.1594   30.7846   11.0698 H   0  0  0  0  0  0  0  0  0  0  0  0
    0.6050   33.4540    7.7420 H   0  0  0  0  0  0  0  0  0  0  0  0
  1  2  1  0
  2  3  1  0
  3  4  1  0
  4  5  2  0
  4  6  1  0
  6  7  1  0
  7  8  1  0
  8  9  2  0
  9 10  1  0
 10 11  1  0
 11 12  1  0
  9 13  1  0
 13 14  1  0
 14  7  2  0
 12 10  1  0
  1 15  1  0
  1 16  1  0
  1 17  1  0
  2 18  1  0
  2 19  1  0
  3 20  1  0
  3 21  1  0
  6 22  1  0
  8 23  1  0
 10 24  1  0
 11 25  1  0
 11 26  1  0
 12 27  1  0
 12 28  1  0
 13 29  1  0
M  END
>  <vina_affinity>  (31) 
-6.194

$$$$
act_91277
     RDKit          3D

 41 44  0  0  0  0  0  0  0  0999 V2000
    4.4800   27.6860    5.8070 C   0  0  0  0  0  0  0  0  0  0  0  0
    4.0800   28.9110    6.4900 N   0  0  0  0  0  0  0  0  0  0  0  0
    4.1170   28.9430    8.1680 S   0  0  0  0  0  0  0  0  0  0  0  0
    4.4870   27.6120    8.5930 O   0  0  0  0  0  0  0  0  0  0  0  0
    4.8520   30.1150    8.5860 O   0  0  0  0  0  0  0  0  0  0  0  0
    2.4000   29.1690    8.5660 C   0  0  0  0  0  0  0  0  0  0  0  0
    1.6290   30.0920    7.8300 C   0  0  0  0  0  0  0  0  0  0  0  0
    0.2840   30.2910    8.1460 C   0  0  0  0  0  0  0  0  0  0  0  0
   -0.2380   29.5590    9.1960 C   0  0  0  0  0  0  0  0  0  0  0  0
    0.5210   28.6500    9.9410 C   0  0  0  0  0  0  0  0  0  0  0  0
    1.8550   28.4440    9.6360 C   0  0  0  0  0  0  0  0  0  0  0  0
   -0.3860   28.0890   10.9630 C   0  0  0  0  0  0  0  0  0  0  0  0
    0.0100   27.1820   11.8740 C   0  0  0  0  0  0  0  0  0  0  0  0
   -0.7330   26.5560   12.9120 C   0  0  0  0  0  0  0  0  0  0  0  0
   -1.4900   27.2570   13.8280 N   0  0  0  0  0  0  0  0  0  0  0  0
   -2.1140   26.3960   14.6970 C   0  0  0  0  0  0  0  0  0  0  0  0
   -1.7510   25.1140   14.3570 C   0  0  0  0  0  0  0  0  0  0  0  0
   -0.8850   25.2180   13.2370 C   0  0  0  0  0  0  0  0  0  0  0  0
   -0.3360   23.9770   12.6340 C   0  0  0  0  0  0  0  0  0  0  0  0
   -0.2700   22.9040   13.7280 C   0  0  0  0  0  0  0  0  0  0  0  0
   -1.5200   22.7390   14.4490 O   0  0  0  0  0  0  0  0  0  0  0  0
   -2.1510   23.8510   14.9610 C   0  0  0  0  0  0  0  0  0  0  0  0
   -3.0080   23.7580   15.8310 O   0  0  0  0  0  0  0  0  0  0  0  0
   -1.7280   28.7440   10.7360 C   0  0  0  0  0  0  0  0  0  0  0  0
   -2.7670   28.5680   11.3430 O   0  0  0  0  0  0  0  0  0  0  0  0
   -1.5430   29.6050    9.6670 N   0  0  0  0  0  0  0  0  0  0  0  0
    4.7313   26.9163    6.5516 H   0  0  0  0  0  0  0  0  0  0  0  0
    3.6514   27.3301    5.1771 H   0  0  0  0  0  0  0  0  0  0  0  0
    5.3590   27.8877    5.1771 H   0  0  0  0  0  0  0  0  0  0  0  0
    3.2990   29.4430    6.1060 H   0  0  0  0  0  0  0  0  0  0  0  0
    2.0883   30.6564    7.0051 H   0  0  0  0  0  0  0  0  0  0  0  0
   -0.3364   31.0026    7.5814 H   0  0  0  0  0  0  0  0  0  0  0  0
    2.4674   27.7356   10.2132 H   0  0  0  0  0  0  0  0  0  0  0  0
    1.0654   26.8797   11.8057 H   0  0  0  0  0  0  0  0  0  0  0  0
   -1.5860   28.2680   13.8630 H   0  0  0  0  0  0  0  0  0  0  0  0
   -2.7858   26.6815   15.5199 H   0  0  0  0  0  0  0  0  0  0  0  0
   -0.9910   23.6376   11.8180 H   0  0  0  0  0  0  0  0  0  0  0  0
    0.6671   24.1645   12.2233 H   0  0  0  0  0  0  0  0  0  0  0  0
   -0.0081   21.9438   13.2595 H   0  0  0  0  0  0  0  0  0  0  0  0
    0.4858   23.2298   14.4578 H   0  0  0  0  0  0  0  0  0  0  0  0
   -2.2860   30.1810    9.3000 H   0  0  0  0  0  0  0  0  0  0  0  0
  1  2  1  0
  2  3  1  0
  3  4  2  0
  3  5  2  0
  3  6  1  0
  6  7  2  0
  7  8  1  0
  8  9  2  0
  9 10  1  0
 10 11  2  0
 10 12  1  0
 12 13  2  0
 13 14  1  0
 14 15  1  0
 15 16  1  0
 16 17  2  0
 17 18  1  0
 18 19  1  0
 19 20  1  0
 20 21  1  0
 21 22  1  0
 22 23  2  0
 12 24  1  0
 24 25  2  0
 24 26  1  0
 11  6  1  0
 18 14  2  0
 26  9  1  0
 22 17  1  0
  1 27  1  0
  1 28  1  0
  1 29  1  0
  2 30  1  0
  7 31  1  0
  8 32  1  0
 11 33  1  0
 13 34  1  0
 15 35  1  0
 16 36  1  0
 19 37  1  0
 19 38  1  0
 20 39  1  0
 20 40  1  0
 26 41  1  0
M  END
>  <vina_affinity>  (32) 
-9.058

$$$$
act_310557
     RDKit          3D

 52 56  0  0  0  0  0  0  0  0999 V2000
    7.7320   25.9430    7.4930 C   0  0  0  0  0  0  0  0  0  0  0  0
    6.4800   25.6160    6.9010 O   0  0  0  0  0  0  0  0  0  0  0  0
    5.5260   26.5950    6.8980 C   0  0  0  0  0  0  0  0  0  0  0  0
    5.2300   27.1270    8.1530 C   0  0  0  0  0  0  0  0  0  0  0  0
    4.2720   28.1370    8.2950 C   0  0  0  0  0  0  0  0  0  0  0  0
    3.5860   28.6330    7.1780 C   0  0  0  0  0  0  0  0  0  0  0  0
    2.5820   29.6830    7.3130 C   0  0  0  0  0  0  0  0  0  0  0  0
    2.4380   30.7380    6.4170 N   0  0  0  0  0  0  0  0  0  0  0  0
    1.4390   31.6140    6.7130 N   0  0  0  0  0  0  0  0  0  0  0  0
    0.9530   31.1050    7.8330 C   0  0  0  0  0  0  0  0  0  0  0  0
    1.6110   29.9410    8.2470 C   0  0  0  0  0  0  0  0  0  0  0  0
    1.0260   29.4520    9.4670 C   0  0  0  0  0  0  0  0  0  0  0  0
    1.3210   28.4800   10.1400 O   0  0  0  0  0  0  0  0  0  0  0  0
   -0.0700   30.4340    9.7690 C   0  0  0  0  0  0  0  0  0  0  0  0
   -0.9550   30.4400   10.8340 C   0  0  0  0  0  0  0  0  0  0  0  0
   -0.8710   29.4180   11.8010 N   0  0  0  0  0  0  0  0  0  0  0  0
   -1.7900   28.4300   12.0640 C   0  0  0  0  0  0  0  0  0  0  0  0
   -2.8440   28.2220   11.4690 O   0  0  0  0  0  0  0  0  0  0  0  0
   -1.3790   27.6180   13.1120 N   0  0  0  0  0  0  0  0  0  0  0  0
   -2.3440   26.6930   13.5850 N   0  0  0  0  0  0  0  0  0  0  0  0
   -1.8560   25.4810   14.0420 C   0  0  0  0  0  0  0  0  0  0  0  0
   -0.6890   25.1360   13.8660 O   0  0  0  0  0  0  0  0  0  0  0  0
   -2.7990   24.6180   14.7890 C   0  0  0  0  0  0  0  0  0  0  0  0
   -4.1530   24.9180   14.9610 C   0  0  0  0  0  0  0  0  0  0  0  0
   -4.9630   24.0390   15.6820 C   0  0  0  0  0  0  0  0  0  0  0  0
   -4.3910   22.8880   16.2000 C   0  0  0  0  0  0  0  0  0  0  0  0
   -3.0900   22.5630   16.0430 N   0  0  0  0  0  0  0  0  0  0  0  0
   -2.3240   23.4310   15.3360 C   0  0  0  0  0  0  0  0  0  0  0  0
   -1.8750   31.4950   10.8610 C   0  0  0  0  0  0  0  0  0  0  0  0
   -1.8940   32.4890    9.8510 C   0  0  0  0  0  0  0  0  0  0  0  0
   -0.9920   32.4630    8.7810 C   0  0  0  0  0  0  0  0  0  0  0  0
   -0.0880   31.4280    8.7580 C   0  0  0  0  0  0  0  0  0  0  0  0
    3.8940   28.0960    5.9220 C   0  0  0  0  0  0  0  0  0  0  0  0
    4.8550   27.0850    5.7810 C   0  0  0  0  0  0  0  0  0  0  0  0
    7.6372   25.9182    8.5886 H   0  0  0  0  0  0  0  0  0  0  0  0
    8.4903   25.2128    7.1740 H   0  0  0  0  0  0  0  0  0  0  0  0
    8.0364   26.9508    7.1740 H   0  0  0  0  0  0  0  0  0  0  0  0
    5.7560   26.7480    9.0417 H   0  0  0  0  0  0  0  0  0  0  0  0
    4.0552   28.5457    9.2930 H   0  0  0  0  0  0  0  0  0  0  0  0
    3.0010   30.9190    5.5930 H   0  0  0  0  0  0  0  0  0  0  0  0
    0.0040   29.3630   12.3190 H   0  0  0  0  0  0  0  0  0  0  0  0
   -0.8550   28.0630   13.8660 H   0  0  0  0  0  0  0  0  0  0  0  0
   -3.1430   27.1330   14.0440 H   0  0  0  0  0  0  0  0  0  0  0  0
   -4.5765   25.8382   14.5322 H   0  0  0  0  0  0  0  0  0  0  0  0
   -6.0306   24.2550   15.8354 H   0  0  0  0  0  0  0  0  0  0  0  0
   -5.0327   22.2008   16.7709 H   0  0  0  0  0  0  0  0  0  0  0  0
   -1.2633   23.1809   15.1864 H   0  0  0  0  0  0  0  0  0  0  0  0
   -2.6004   31.5538   11.6858 H   0  0  0  0  0  0  0  0  0  0  0  0
   -2.6349   33.2999    9.9093 H   0  0  0  0  0  0  0  0  0  0  0  0
   -1.0060   33.2338    7.9963 H   0  0  0  0  0  0  0  0  0  0  0  0
    3.3727   28.4741    5.0302 H   0  0  0  0  0  0  0  0  0  0  0  0
    5.0796   26.6775    4.7843 H   0  0  0  0  0  0  0  0  0  0  0  0
  1  2  1  0
  2  3  1  0
  3  4  2  0
  4  5  1  0
  5  6  2  0
  6  7  1  0
  7  8  1  0
  8  9  1  0
  9 10  2  0
 10 11  1  0
 11 12  1  0
 12 13  2  0
 12 14  1  0
 14 15  2  0
 15 16  1  0
 16 17  1  0
 17 18  2  0
 17 19  1  0
 19 20  1  0
 20 21  1  0
 21 22  2  0
 21 23  1  0
 23 24  2  0
 24 25  1  0
 25 26  2  0
 26 27  1  0
 27 28  2  0
 15 29  1  0
 29 30  2  0
 30 31  1  0
 31 32  2  0
  6 33  1  0
 33 34  2  0
 34  3  1  0
 11  7  2  0
 32 14  1  0
 32 10  1  0
 28 23  1  0
  1 35  1  0
  1 36  1  0
  1 37  1  0
  4 38  1  0
  5 39  1  0
  8 40  1  0
 16 41  1  0
 19 42  1  0
 20 43  1  0
 24 44  1  0
 25 45  1  0
 26 46  1  0
 28 47  1  0
 29 48  1  0
 30 49  1  0
 31 50  1  0
 33 51  1  0
 34 52  1  0
M  END
>  <vina_affinity>  (33) 
-11.165

$$$$
act_137264
     RDKit          3D

 46 48  0  0  0  0  0  0  0  0999 V2000
    1.8450   17.4830   16.6100 C   0  0  0  0  0  0  0  0  0  0  0  0
    0.9410   18.6800   16.9080 C   0  0  0  0  0  0  0  0  0  0  0  0
    0.7580   18.8190   18.4220 C   0  0  0  0  0  0  0  0  0  0  0  0
   -0.4420   18.5510   16.2270 C   0  0  0  0  0  0  0  0  0  0  0  0
   -0.6560   19.3030   14.9240 C   0  0  0  0  0  0  0  0  0  0  0  0
   -0.3790   18.6660   13.6910 C   0  0  0  0  0  0  0  0  0  0  0  0
   -0.5190   19.3150   12.4670 C   0  0  0  0  0  0  0  0  0  0  0  0
   -0.9120   20.6470   12.4090 C   0  0  0  0  0  0  0  0  0  0  0  0
   -1.1480   21.3030   13.6190 C   0  0  0  0  0  0  0  0  0  0  0  0
   -1.4950   22.6200   13.8350 N   0  0  0  0  0  0  0  0  0  0  0  0
   -1.5780   22.8870   15.1760 C   0  0  0  0  0  0  0  0  0  0  0  0
   -1.8370   24.1050   15.6450 O   0  0  0  0  0  0  0  0  0  0  0  0
   -1.3610   21.6910   15.8260 C   0  0  0  0  0  0  0  0  0  0  0  0
   -1.3510   21.5150   17.2180 N   0  0  0  0  0  0  0  0  0  0  0  0
   -2.3920   21.2250   17.8620 N   0  0  0  0  0  0  0  0  0  0  0  0
   -3.6200   21.0790   17.1870 C   0  0  0  0  0  0  0  0  0  0  0  0
   -4.0020   19.8510   16.6300 C   0  0  0  0  0  0  0  0  0  0  0  0
   -5.2330   19.7110   15.9870 C   0  0  0  0  0  0  0  0  0  0  0  0
   -6.1030   20.8030   15.9240 C   0  0  0  0  0  0  0  0  0  0  0  0
   -7.6440   20.6510   15.0710 S   0  0  0  0  0  0  0  0  0  0  0  0
   -7.3220   21.4430   13.6270 N   0  0  0  0  0  0  0  0  0  0  0  0
   -8.6450   21.4430   15.7450 O   0  0  0  0  0  0  0  0  0  0  0  0
   -7.8590   19.2640   14.7280 O   0  0  0  0  0  0  0  0  0  0  0  0
   -5.7470   22.0300   16.4880 C   0  0  0  0  0  0  0  0  0  0  0  0
   -4.5120   22.1580   17.1280 C   0  0  0  0  0  0  0  0  0  0  0  0
   -1.0390   20.6770   14.8670 C   0  0  0  0  0  0  0  0  0  0  0  0
    2.1835   17.0348   17.5558 H   0  0  0  0  0  0  0  0  0  0  0  0
    1.2841   16.7354   16.0299 H   0  0  0  0  0  0  0  0  0  0  0  0
    2.7176   17.8179   16.0299 H   0  0  0  0  0  0  0  0  0  0  0  0
    1.4295   19.5767   16.4990 H   0  0  0  0  0  0  0  0  0  0  0  0
    1.5307   18.2321   18.9401 H   0  0  0  0  0  0  0  0  0  0  0  0
    0.8492   19.8776   18.7067 H   0  0  0  0  0  0  0  0  0  0  0  0
   -0.2373   18.4472   18.7067 H   0  0  0  0  0  0  0  0  0  0  0  0
   -0.6101   17.4833   16.0225 H   0  0  0  0  0  0  0  0  0  0  0  0
   -1.1467   19.0116   16.9350 H   0  0  0  0  0  0  0  0  0  0  0  0
   -0.0406   17.6194   13.6999 H   0  0  0  0  0  0  0  0  0  0  0  0
   -0.3162   18.7671   11.5350 H   0  0  0  0  0  0  0  0  0  0  0  0
   -1.0326   21.1650   11.4461 H   0  0  0  0  0  0  0  0  0  0  0  0
   -1.6260   23.2920   13.0950 H   0  0  0  0  0  0  0  0  0  0  0  0
   -2.5890   24.0750   16.2600 H   0  0  0  0  0  0  0  0  0  0  0  0
   -3.3240   18.9876   16.7003 H   0  0  0  0  0  0  0  0  0  0  0  0
   -5.5159   18.7495   15.5338 H   0  0  0  0  0  0  0  0  0  0  0  0
   -7.5360   22.4360   13.7190 H   0  0  0  0  0  0  0  0  0  0  0  0
   -6.3640   21.2510   13.3330 H   0  0  0  0  0  0  0  0  0  0  0  0
   -6.4329   22.8879   16.4288 H   0  0  0  0  0  0  0  0  0  0  0  0
   -4.2365   23.1170   17.5911 H   0  0  0  0  0  0  0  0  0  0  0  0
  1  2  1  0
  2  3  1  0
  2  4  1  0
  4  5  1  0
  5  6  2  0
  6  7  1  0
  7  8  2  0
  8  9  1  0
  9 10  1  0
 10 11  1  0
 11 12  1  0
 11 13  2  0
 13 14  1  0
 14 15  2  3
 15 16  1  0
 16 17  2  0
 17 18  1  0
 18 19  2  0
 19 20  1  0
 20 21  1  0
 20 22  2  0
 20 23  2  0
 19 24  1  0
 24 25  2  0
 13 26  1  0
 26  5  1  0
 26  9  2  0
 25 16  1  0
  1 27  1  0
  1 28  1  0
  1 29  1  0
  2 30  1  0
  3 31  1  0
  3 32  1  0
  3 33  1  0
  4 34  1  0
  4 35  1  0
  6 36  1  0
  7 37  1  0
  8 38  1  0
 10 39  1  0
 12 40  1  0
 17 41  1  0
 18 42  1  0
 21 43  1  0
 21 44  1  0
 24 45  1  0
 25 46  1  0
M  END
>  <vina_affinity>  (34) 
-6.217

$$$$
act_612816
     RDKit          3D

 49 52  0  0  0  0  0  0  0  0999 V2000
   -0.7670   32.5860    9.1950 N   0  0  0  0  0  0  0  0  0  0  0  0
   -1.7930   31.5270    9.3130 C   0  0  2  0  0  0  0  0  0  0  0  0
   -1.9450   31.0440   10.7830 C   0  0  0  0  0  0  0  0  0  0  0  0
   -2.4730   29.6840   10.8710 N   0  0  0  0  0  0  0  0  0  0  0  0
   -1.8300   28.7220   11.5780 C   0  0  0  0  0  0  0  0  0  0  0  0
   -1.1000   29.0390   12.6210 N   0  0  0  0  0  0  0  0  0  0  0  0
   -0.5430   27.9020   13.1740 C   0  0  0  0  0  0  0  0  0  0  0  0
   -0.8410   26.7100   12.5420 C   0  0  0  0  0  0  0  0  0  0  0  0
   -0.4390   25.3430   12.8810 C   0  0  0  0  0  0  0  0  0  0  0  0
    0.3330   24.5690   12.0050 C   0  0  0  0  0  0  0  0  0  0  0  0
    0.7190   23.2700   12.3500 C   0  0  0  0  0  0  0  0  0  0  0  0
    0.3380   22.7200   13.5840 C   0  0  0  0  0  0  0  0  0  0  0  0
    0.6920   21.4280   13.9820 C   0  0  0  0  0  0  0  0  0  0  0  0
    0.3430   20.8660   15.1630 N   0  0  0  0  0  0  0  0  0  0  0  0
   -0.3990   21.6240   15.9940 C   0  0  0  0  0  0  0  0  0  0  0  0
   -0.8070   22.9170   15.7050 C   0  0  0  0  0  0  0  0  0  0  0  0
   -0.4350   23.4830   14.4790 C   0  0  0  0  0  0  0  0  0  0  0  0
   -0.8130   24.7910   14.1170 C   0  0  0  0  0  0  0  0  0  0  0  0
   -1.8640   27.0420   11.2050 S   0  0  0  0  0  0  0  0  0  0  0  0
   -1.4600   30.3200    8.4070 C   0  0  0  0  0  0  0  0  0  0  0  0
    0.0160   29.9920    8.3540 C   0  0  0  0  0  0  0  0  0  0  0  0
    0.5860   29.1290    9.2990 C   0  0  0  0  0  0  0  0  0  0  0  0
    1.9460   28.8190    9.2460 C   0  0  0  0  0  0  0  0  0  0  0  0
    2.7620   29.3560    8.2380 C   0  0  0  0  0  0  0  0  0  0  0  0
    4.2350   29.0360    8.1940 C   0  0  0  0  0  0  0  0  0  0  0  0
    4.6580   28.6170    6.9680 F   0  0  0  0  0  0  0  0  0  0  0  0
    5.0090   30.1110    8.5080 F   0  0  0  0  0  0  0  0  0  0  0  0
    4.5960   28.0510    9.0640 F   0  0  0  0  0  0  0  0  0  0  0  0
    2.1900   30.2210    7.2950 C   0  0  0  0  0  0  0  0  0  0  0  0
    0.8290   30.5300    7.3500 C   0  0  0  0  0  0  0  0  0  0  0  0
   -0.8830   33.2270    9.9840 H   0  0  0  0  0  0  0  0  0  0  0  0
    0.1630   32.1840    9.2900 H   0  0  0  0  0  0  0  0  0  0  0  0
   -2.7457   31.9682    8.9848 H   0  0  0  0  0  0  0  0  0  0  0  0
   -0.9580   31.0718   11.2678 H   0  0  0  0  0  0  0  0  0  0  0  0
   -2.6592   31.7140   11.2840 H   0  0  0  0  0  0  0  0  0  0  0  0
   -2.8220   29.3350    9.9830 H   0  0  0  0  0  0  0  0  0  0  0  0
    0.1002   27.9433   14.0654 H   0  0  0  0  0  0  0  0  0  0  0  0
    0.6390   24.9877   11.0349 H   0  0  0  0  0  0  0  0  0  0  0  0
    1.3248   22.6756   11.6502 H   0  0  0  0  0  0  0  0  0  0  0  0
    1.2962   20.8259   13.2874 H   0  0  0  0  0  0  0  0  0  0  0  0
   -0.6990   21.1908   16.9596 H   0  0  0  0  0  0  0  0  0  0  0  0
   -1.4116   23.4878   16.4251 H   0  0  0  0  0  0  0  0  0  0  0  0
   -1.4130   25.3918   14.8163 H   0  0  0  0  0  0  0  0  0  0  0  0
   -1.9984   29.4398    8.7883 H   0  0  0  0  0  0  0  0  0  0  0  0
   -1.7679   30.5884    7.3856 H   0  0  0  0  0  0  0  0  0  0  0  0
   -0.0430   28.6924   10.0888 H   0  0  0  0  0  0  0  0  0  0  0  0
    2.3821   28.1480   10.0008 H   0  0  0  0  0  0  0  0  0  0  0  0
    2.8178   30.6599    6.5055 H   0  0  0  0  0  0  0  0  0  0  0  0
    0.3921   31.2025    6.5971 H   0  0  0  0  0  0  0  0  0  0  0  0
  1  2  1  0
  2  3  1  0
  3  4  1  0
  4  5  1  0
  5  6  2  0
  6  7  1  0
  7  8  2  0
  8  9  1  0
  9 10  2  0
 10 11  1  0
 11 12  2  0
 12 13  1  0
 13 14  2  0
 14 15  1  0
 15 16  2  0
 16 17  1  0
 17 18  2  0
  8 19  1  0
  2 20  1  0
 20 21  1  0
 21 22  2  0
 22 23  1  0
 23 24  2  0
 24 25  1  0
 25 26  1  0
 25 27  1  0
 25 28  1  0
 24 29  1  0
 29 30  2  0
 19  5  1  0
 30 21  1  0
 18  9  1  0
 17 12  1  0
  1 31  1  0
  1 32  1  0
  2 33  1  6
  3 34  1  0
  3 35  1  0
  4 36  1  0
  7 37  1  0
 10 38  1  0
 11 39  1  0
 13 40  1  0
 15 41  1  0
 16 42  1  0
 18 43  1  0
 20 44  1  0
 20 45  1  0
 22 46  1  0
 23 47  1  0
 29 48  1  0
 30 49  1  0
M  END
>  <vina_affinity>  (35) 
-8.758

$$$$
act_148175
     RDKit          3D

 60 63  0  0  0  0  0  0  0  0999 V2000
   -3.9140   19.8370   15.6370 C   0  0  0  0  0  0  0  0  0  0  0  0
   -2.5100   20.2750   15.2190 C   0  0  0  0  0  0  0  0  0  0  0  0
   -1.4410   19.6300   16.0990 C   0  0  0  0  0  0  0  0  0  0  0  0
   -2.3850   21.7260   15.1990 N   0  0  0  0  0  0  0  0  0  0  0  0
   -3.1280   22.6210   15.9250 C   0  0  0  0  0  0  0  0  0  0  0  0
   -2.7680   23.8650   15.6900 N   0  0  0  0  0  0  0  0  0  0  0  0
   -1.7510   23.7670   14.7630 C   0  0  0  0  0  0  0  0  0  0  0  0
   -0.9570   24.7330   14.1240 C   0  0  0  0  0  0  0  0  0  0  0  0
   -1.1420   26.1010   14.3510 N   0  0  0  0  0  0  0  0  0  0  0  0
   -2.1440   26.7210   13.5060 C   0  0  0  0  0  0  0  0  0  0  0  0
   -1.4560   27.4910   12.4030 C   0  0  0  0  0  0  0  0  0  0  0  0
   -0.4650   28.4330   12.7100 C   0  0  0  0  0  0  0  0  0  0  0  0
    0.1830   29.1420   11.6930 C   0  0  0  0  0  0  0  0  0  0  0  0
   -0.1350   28.9250   10.3440 C   0  0  0  0  0  0  0  0  0  0  0  0
    0.5470   29.6720    9.2740 C   0  0  0  0  0  0  0  0  0  0  0  0
   -0.0730   30.7650    8.6450 C   0  0  0  0  0  0  0  0  0  0  0  0
    0.5750   31.4740    7.6290 C   0  0  0  0  0  0  0  0  0  0  0  0
    1.8550   31.1020    7.2250 C   0  0  0  0  0  0  0  0  0  0  0  0
    2.4870   30.0220    7.8360 C   0  0  0  0  0  0  0  0  0  0  0  0
    1.8380   29.3140    8.8500 C   0  0  0  0  0  0  0  0  0  0  0  0
   -1.1220   27.9720   10.0460 C   0  0  0  0  0  0  0  0  0  0  0  0
   -1.7740   27.2620   11.0600 C   0  0  0  0  0  0  0  0  0  0  0  0
   -0.0010   24.2920   13.2620 N   0  0  0  0  0  0  0  0  0  0  0  0
    0.1490   22.9720   13.0380 C   0  0  0  0  0  0  0  0  0  0  0  0
    1.1640   22.6630   12.1320 N   0  0  0  0  0  0  0  0  0  0  0  0
    1.0600   23.4000   10.8710 C   0  0  0  0  0  0  0  0  0  0  0  0
    2.2780   24.3250   10.7090 C   0  0  2  0  0  0  0  0  0  0  0  0
    2.9790   24.4440   11.9610 O   0  0  0  0  0  0  0  0  0  0  0  0
    1.9040   25.7320   10.2400 C   0  0  0  0  0  0  0  0  0  0  0  0
    2.6040   26.6960   11.0290 O   0  0  0  0  0  0  0  0  0  0  0  0
   -0.5710   21.9840   13.5960 N   0  0  0  0  0  0  0  0  0  0  0  0
   -1.4950   22.4470   14.4490 C   0  0  0  0  0  0  0  0  0  0  0  0
   -3.9800   19.8164   16.7348 H   0  0  0  0  0  0  0  0  0  0  0  0
   -4.6535   20.5471   15.2385 H   0  0  0  0  0  0  0  0  0  0  0  0
   -4.1185   18.8324   15.2385 H   0  0  0  0  0  0  0  0  0  0  0  0
   -2.3468   19.9212   14.1903 H   0  0  0  0  0  0  0  0  0  0  0  0
   -1.6960   19.7838   17.1579 H   0  0  0  0  0  0  0  0  0  0  0  0
   -1.3926   18.5518   15.8864 H   0  0  0  0  0  0  0  0  0  0  0  0
   -0.4646   20.0898   15.8864 H   0  0  0  0  0  0  0  0  0  0  0  0
   -3.9297   22.3335   16.6211 H   0  0  0  0  0  0  0  0  0  0  0  0
   -0.2420   26.5760   14.3600 H   0  0  0  0  0  0  0  0  0  0  0  0
   -2.7867   25.9439   13.0666 H   0  0  0  0  0  0  0  0  0  0  0  0
   -2.7609   27.4062   14.1059 H   0  0  0  0  0  0  0  0  0  0  0  0
   -0.1942   28.6166   13.7602 H   0  0  0  0  0  0  0  0  0  0  0  0
    0.9541   29.8814   11.9552 H   0  0  0  0  0  0  0  0  0  0  0  0
   -1.0836   31.0674    8.9567 H   0  0  0  0  0  0  0  0  0  0  0  0
    0.0733   32.3267    7.1481 H   0  0  0  0  0  0  0  0  0  0  0  0
    2.3651   31.6596    6.4257 H   0  0  0  0  0  0  0  0  0  0  0  0
    3.4982   29.7263    7.5198 H   0  0  0  0  0  0  0  0  0  0  0  0
    2.3461   28.4617    9.3248 H   0  0  0  0  0  0  0  0  0  0  0  0
   -1.3876   27.7800    8.9959 H   0  0  0  0  0  0  0  0  0  0  0  0
   -2.5419   26.5187   10.7995 H   0  0  0  0  0  0  0  0  0  0  0  0
    2.0110   22.8460   12.6670 H   0  0  0  0  0  0  0  0  0  0  0  0
    1.0275   22.6881   10.0331 H   0  0  0  0  0  0  0  0  0  0  0  0
    0.1414   24.0051   10.8775 H   0  0  0  0  0  0  0  0  0  0  0  0
    2.9119   23.8624    9.9382 H   0  0  0  0  0  0  0  0  0  0  0  0
    3.6810   23.7600   11.9290 H   0  0  0  0  0  0  0  0  0  0  0  0
    2.1811   25.8522    9.1823 H   0  0  0  0  0  0  0  0  0  0  0  0
    0.8201   25.8814   10.3529 H   0  0  0  0  0  0  0  0  0  0  0  0
    2.6280   27.5080   10.4820 H   0  0  0  0  0  0  0  0  0  0  0  0
  1  2  1  0
  2  3  1  0
  2  4  1  0
  4  5  1  0
  5  6  2  0
  6  7  1  0
  7  8  2  0
  8  9  1  0
  9 10  1  0
 10 11  1  0
 11 12  2  0
 12 13  1  0
 13 14  2  0
 14 15  1  0
 15 16  2  0
 16 17  1  0
 17 18  2  0
 18 19  1  0
 19 20  2  0
 14 21  1  0
 21 22  2  0
  8 23  1  0
 23 24  2  0
 24 25  1  0
 25 26  1  0
 26 27  1  0
 27 28  1  0
 27 29  1  0
 29 30  1  0
 24 31  1  0
 31 32  2  0
 32  4  1  0
 32  7  1  0
 22 11  1  0
 20 15  1  0
  1 33  1  0
  1 34  1  0
  1 35  1  0
  2 36  1  0
  3 37  1  0
  3 38  1  0
  3 39  1  0
  5 40  1  0
  9 41  1  0
 10 42  1  0
 10 43  1  0
 12 44  1  0
 13 45  1  0
 16 46  1  0
 17 47  1  0
 18 48  1  0
 19 49  1  0
 20 50  1  0
 21 51  1  0
 22 52  1  0
 25 53  1  0
 26 54  1  0
 26 55  1  0
 27 56  1  6
 28 57  1  0
 29 58  1  0
 29 59  1  0
 30 60  1  0
M  END
>  <vina_affinity>  (36) 
-8.178

$$$$
act_614967
     RDKit          3D

 57 60  0  0  0  0  0  0  0  0999 V2000
    2.3450   24.5980   10.3440 C   0  0  0  0  0  0  0  0  0  0  0  0
    2.2500   26.0330    9.9120 C   0  0  0  0  0  0  0  0  0  0  0  0
    3.3100   26.5130    9.2210 N   0  0  0  0  0  0  0  0  0  0  0  0
    3.2350   27.8050    8.8530 C   0  0  0  0  0  0  0  0  0  0  0  0
    4.6290   28.4440    7.9290 S   0  0  0  0  0  0  0  0  0  0  0  0
    4.8550   29.8090    8.3830 O   0  0  0  0  0  0  0  0  0  0  0  0
    5.6790   27.4380    7.9880 O   0  0  0  0  0  0  0  0  0  0  0  0
    4.0010   28.5040    6.2560 C   0  0  0  0  0  0  0  0  0  0  0  0
    4.4790   27.2960    5.4900 C   0  0  0  0  0  0  0  0  0  0  0  0
    4.0870   26.0060    5.8790 C   0  0  0  0  0  0  0  0  0  0  0  0
    4.5290   24.8880    5.1690 C   0  0  0  0  0  0  0  0  0  0  0  0
    5.3630   25.0470    4.0650 C   0  0  0  0  0  0  0  0  0  0  0  0
    5.7530   26.3240    3.6650 C   0  0  0  0  0  0  0  0  0  0  0  0
    5.3130   27.4440    4.3730 C   0  0  0  0  0  0  0  0  0  0  0  0
    2.2300   28.6650    9.0920 N   0  0  0  0  0  0  0  0  0  0  0  0
    1.1760   28.1470    9.7730 C   0  0  0  0  0  0  0  0  0  0  0  0
    0.1120   29.1260   10.0300 C   0  0  0  0  0  0  0  0  0  0  0  0
   -0.7490   29.5160    8.9890 C   0  0  0  0  0  0  0  0  0  0  0  0
   -1.7850   30.4250    9.2160 C   0  0  0  0  0  0  0  0  0  0  0  0
   -1.9700   30.9460   10.4920 C   0  0  0  0  0  0  0  0  0  0  0  0
   -2.9670   31.8370   10.7580 O   0  0  0  0  0  0  0  0  0  0  0  0
   -1.1410   30.5750   11.5440 C   0  0  0  0  0  0  0  0  0  0  0  0
   -0.1090   29.6690   11.3080 C   0  0  0  0  0  0  0  0  0  0  0  0
    0.7320   29.3220   12.3360 O   0  0  0  0  0  0  0  0  0  0  0  0
    1.1420   26.8220   10.2030 C   0  0  0  0  0  0  0  0  0  0  0  0
    0.0210   26.2760   10.9860 C   0  0  0  0  0  0  0  0  0  0  0  0
   -0.9720   25.9060   10.3720 O   0  0  0  0  0  0  0  0  0  0  0  0
    0.2170   26.2760   12.3510 N   0  0  0  0  0  0  0  0  0  0  0  0
   -0.6680   25.8070   13.3440 C   0  0  0  0  0  0  0  0  0  0  0  0
   -1.7630   26.5310   13.8210 C   0  0  0  0  0  0  0  0  0  0  0  0
   -2.6030   25.9970   14.8060 C   0  0  0  0  0  0  0  0  0  0  0  0
   -2.3570   24.7270   15.3250 C   0  0  0  0  0  0  0  0  0  0  0  0
   -1.2620   23.9990   14.8500 C   0  0  0  0  0  0  0  0  0  0  0  0
   -0.9940   22.6570   15.3790 N   0  0  0  0  0  0  0  0  0  0  0  0
   -0.3950   22.5700   16.4600 O   0  0  0  0  0  0  0  0  0  0  0  0
   -1.3870   21.6890   14.7120 O   0  0  0  0  0  0  0  0  0  0  0  0
   -0.4150   24.5340   13.8680 C   0  0  0  0  0  0  0  0  0  0  0  0
    2.3485   24.5453   11.4427 H   0  0  0  0  0  0  0  0  0  0  0  0
    1.4819   24.0394    9.9529 H   0  0  0  0  0  0  0  0  0  0  0  0
    3.2742   24.1581    9.9529 H   0  0  0  0  0  0  0  0  0  0  0  0
    2.9012   28.5112    6.2783 H   0  0  0  0  0  0  0  0  0  0  0  0
    4.3664   29.4165    5.7622 H   0  0  0  0  0  0  0  0  0  0  0  0
    3.4270   25.8747    6.7492 H   0  0  0  0  0  0  0  0  0  0  0  0
    4.2181   23.8803    5.4820 H   0  0  0  0  0  0  0  0  0  0  0  0
    5.7138   24.1651    3.5089 H   0  0  0  0  0  0  0  0  0  0  0  0
    6.4083   26.4495    2.7904 H   0  0  0  0  0  0  0  0  0  0  0  0
    5.6229   28.4495    4.0521 H   0  0  0  0  0  0  0  0  0  0  0  0
   -0.6046   29.0992    7.9813 H   0  0  0  0  0  0  0  0  0  0  0  0
   -2.4490   30.7262    8.3923 H   0  0  0  0  0  0  0  0  0  0  0  0
   -3.8260   31.4030   10.6180 H   0  0  0  0  0  0  0  0  0  0  0  0
   -1.2976   30.9913   12.5501 H   0  0  0  0  0  0  0  0  0  0  0  0
    1.1000   28.4420   12.1330 H   0  0  0  0  0  0  0  0  0  0  0  0
    1.1310   26.5840   12.6810 H   0  0  0  0  0  0  0  0  0  0  0  0
   -1.9682   27.5336   13.4177 H   0  0  0  0  0  0  0  0  0  0  0  0
   -3.4600   26.5819   15.1714 H   0  0  0  0  0  0  0  0  0  0  0  0
   -3.0154   24.3033   16.0977 H   0  0  0  0  0  0  0  0  0  0  0  0
    0.4478   23.9532   13.5099 H   0  0  0  0  0  0  0  0  0  0  0  0
  1  2  1  0
  2  3  2  0
  3  4  1  0
  4  5  1  0
  5  6  2  0
  5  7  2  0
  5  8  1  0
  8  9  1  0
  9 10  2  0
 10 11  1  0
 11 12  2  0
 12 13  1  0
 13 14  2  0
  4 15  2  0
 15 16  1  0
 16 17  1  0
 17 18  2  0
 18 19  1  0
 19 20  2  0
 20 21  1  0
 20 22  1  0
 22 23  2  0
 23 24  1  0
 16 25  2  0
 25 26  1  0
 26 27  2  0
 26 28  1  0
 28 29  1  0
 29 30  2  0
 30 31  1  0
 31 32  2  0
 32 33  1  0
 33 34  1  0
 34 35  2  0
 34 36  1  0
 33 37  2  0
 25  2  1  0
 37 29  1  0
 14  9  1  0
 23 17  1  0
  1 38  1  0
  1 39  1  0
  1 40  1  0
  8 41  1  0
  8 42  1  0
 10 43  1  0
 11 44  1  0
 12 45  1  0
 13 46  1  0
 14 47  1  0
 18 48  1  0
 19 49  1  0
 21 50  1  0
 22 51  1  0
 24 52  1  0
 28 53  1  0
 30 54  1  0
 31 55  1  0
 32 56  1  0
 37 57  1  0
M  CHG  2  34   1  36  -1
M  END
>  <vina_affinity>  (37) 
-9.335

$$$$
act_495134
     RDKit          3D

 36 39  0  0  0  0  0  0  0  0999 V2000
   -1.1450   27.0300    9.3360 O   0  0  0  0  0  0  0  0  0  0  0  0
   -1.0020   27.8640   10.2240 C   0  0  0  0  0  0  0  0  0  0  0  0
   -0.4620   27.6330   11.4720 N   0  0  0  0  0  0  0  0  0  0  0  0
   -0.0390   26.4060   11.9510 C   0  0  0  0  0  0  0  0  0  0  0  0
   -0.5990   25.5980   12.9070 C   0  0  0  0  0  0  0  0  0  0  0  0
    0.2100   24.5050   13.0060 N   0  0  0  0  0  0  0  0  0  0  0  0
    1.2760   24.5380   12.1800 N   0  0  0  0  0  0  0  0  0  0  0  0
    1.1220   25.7050   11.5380 C   0  0  0  0  0  0  0  0  0  0  0  0
    2.1280   26.2080   10.4610 C   0  0  0  0  0  0  0  0  0  0  0  0
    2.4450   27.4720   10.2490 N   0  0  0  0  0  0  0  0  0  0  0  0
    3.3550   27.4380    9.2190 C   0  0  0  0  0  0  0  0  0  0  0  0
    4.0240   28.4930    8.5800 C   0  0  0  0  0  0  0  0  0  0  0  0
    4.9160   28.1930    7.5420 C   0  0  0  0  0  0  0  0  0  0  0  0
    5.1380   26.8700    7.1480 C   0  0  0  0  0  0  0  0  0  0  0  0
    4.4790   25.8050    7.7720 C   0  0  0  0  0  0  0  0  0  0  0  0
    3.5960   26.1320    8.8020 C   0  0  0  0  0  0  0  0  0  0  0  0
    2.7990   25.3690    9.6150 N   0  0  0  0  0  0  0  0  0  0  0  0
   -1.4110   29.2750    9.9590 C   0  0  0  0  0  0  0  0  0  0  0  0
   -0.4290   30.1840    9.5450 C   0  0  0  0  0  0  0  0  0  0  0  0
   -0.7630   31.5140    9.2850 C   0  0  0  0  0  0  0  0  0  0  0  0
   -2.0820   31.9410    9.4280 C   0  0  0  0  0  0  0  0  0  0  0  0
   -3.0700   31.0390    9.8240 C   0  0  0  0  0  0  0  0  0  0  0  0
   -2.7390   29.7070   10.0860 C   0  0  0  0  0  0  0  0  0  0  0  0
   -0.2950   28.4080   12.1110 H   0  0  0  0  0  0  0  0  0  0  0  0
   -1.5177   25.7928   13.4798 H   0  0  0  0  0  0  0  0  0  0  0  0
    0.0940   23.7010   13.6150 H   0  0  0  0  0  0  0  0  0  0  0  0
    3.8516   29.5349    8.8879 H   0  0  0  0  0  0  0  0  0  0  0  0
    5.4483   29.0086    7.0306 H   0  0  0  0  0  0  0  0  0  0  0  0
    5.8448   26.6622    6.3312 H   0  0  0  0  0  0  0  0  0  0  0  0
    4.6485   24.7621    7.4660 H   0  0  0  0  0  0  0  0  0  0  0  0
    2.6990   24.3640    9.6140 H   0  0  0  0  0  0  0  0  0  0  0  0
    0.6113   29.8477    9.4241 H   0  0  0  0  0  0  0  0  0  0  0  0
    0.0142   32.2247    8.9675 H   0  0  0  0  0  0  0  0  0  0  0  0
   -2.3444   32.9904    9.2284 H   0  0  0  0  0  0  0  0  0  0  0  0
   -4.1114   31.3770    9.9301 H   0  0  0  0  0  0  0  0  0  0  0  0
   -3.5210   28.9965   10.3922 H   0  0  0  0  0  0  0  0  0  0  0  0
  1  2  2  0
  2  3  1  0
  3  4  1  0
  4  5  2  0
  5  6  1  0
  6  7  1  0
  7  8  2  0
  8  9  1  0
  9 10  2  0
 10 11  1  0
 11 12  2  0
 12 13  1  0
 13 14  2  0
 14 15  1  0
 15 16  2  0
 16 17  1  0
  2 18  1  0
 18 19  2  0
 19 20  1  0
 20 21  2  0
 21 22  1  0
 22 23  2  0
  8  4  1  0
 17  9  1  0
 23 18  1  0
 16 11  1  0
  3 24  1  0
  5 25  1  0
  6 26  1  0
 12 27  1  0
 13 28  1  0
 14 29  1  0
 15 30  1  0
 17 31  1  0
 19 32  1  0
 20 33  1  0
 21 34  1  0
 22 35  1  0
 23 36  1  0
M  END
>  <vina_affinity>  (38) 
-8.397

$$$$
act_494354
     RDKit          3D

 66 70  0  0  0  0  0  0  0  0999 V2000
    9.3480   25.1930    2.4620 C   0  0  0  0  0  0  0  0  0  0  0  0
    8.5100   25.8080    3.4870 N   0  0  0  0  0  0  0  0  0  0  0  0
    7.2710   26.3220    2.9110 C   0  0  0  0  0  0  0  0  0  0  0  0
    8.2740   24.9240    4.6490 C   0  0  0  0  0  0  0  0  0  0  0  0
    8.7080   25.4170    6.0540 C   0  0  1  0  0  0  0  0  0  0  0  0
    9.3550   26.6930    5.9610 O   0  0  0  0  0  0  0  0  0  0  0  0
    7.4860   25.5580    6.9790 C   0  0  0  0  0  0  0  0  0  0  0  0
    6.3080   25.6970    6.1880 O   0  0  0  0  0  0  0  0  0  0  0  0
    5.4400   26.6930    6.5340 C   0  0  0  0  0  0  0  0  0  0  0  0
    4.5720   27.3640    5.6780 C   0  0  0  0  0  0  0  0  0  0  0  0
    3.7310   28.3740    6.1720 C   0  0  0  0  0  0  0  0  0  0  0  0
    3.7350   28.7350    7.5210 C   0  0  0  0  0  0  0  0  0  0  0  0
    2.9230   29.7340    8.0670 N   0  0  0  0  0  0  0  0  0  0  0  0
    1.5900   29.7940    8.4620 C   0  0  0  0  0  0  0  0  0  0  0  0
    0.6630   30.4490    7.7470 N   0  0  0  0  0  0  0  0  0  0  0  0
   -0.5990   30.4430    8.2110 C   0  0  0  0  0  0  0  0  0  0  0  0
   -0.9750   29.8210    9.3720 C   0  0  0  0  0  0  0  0  0  0  0  0
    0.0400   29.1870   10.0510 C   0  0  0  0  0  0  0  0  0  0  0  0
   -0.1980   28.4670   11.2830 C   0  0  0  0  0  0  0  0  0  0  0  0
   -0.6630   28.9680   12.5190 C   0  0  0  0  0  0  0  0  0  0  0  0
   -0.7700   28.0240   13.4560 N   0  0  0  0  0  0  0  0  0  0  0  0
   -0.4160   26.8950   12.8190 N   0  0  0  0  0  0  0  0  0  0  0  0
   -0.4130   25.7320   13.4960 N   0  0  0  0  0  0  0  0  0  0  0  0
   -0.0700   24.6780   12.8020 C   0  0  0  0  0  0  0  0  0  0  0  0
   -0.0370   23.4500   13.4520 N   0  0  0  0  0  0  0  0  0  0  0  0
    0.6450   22.2560   12.9370 C   0  0  0  0  0  0  0  0  0  0  0  0
    1.1360   21.3660   14.0890 C   0  0  0  0  0  0  0  0  0  0  0  0
    0.0830   20.9100   14.9460 O   0  0  0  0  0  0  0  0  0  0  0  0
   -0.9790   21.8640   15.0950 C   0  0  0  0  0  0  0  0  0  0  0  0
   -0.5630   23.3170   14.8250 C   0  0  0  0  0  0  0  0  0  0  0  0
    0.2610   24.7720   11.3370 C   0  0  0  0  0  0  0  0  0  0  0  0
    0.2490   25.9660   10.7340 C   0  0  0  0  0  0  0  0  0  0  0  0
   -0.0800   27.1060   11.4970 C   0  0  0  0  0  0  0  0  0  0  0  0
    1.3120   29.1520    9.6060 N   0  0  0  0  0  0  0  0  0  0  0  0
    4.6170   28.0500    8.3690 C   0  0  0  0  0  0  0  0  0  0  0  0
    5.4570   27.0420    7.8830 C   0  0  0  0  0  0  0  0  0  0  0  0
   10.1455   24.6077    2.9430 H   0  0  0  0  0  0  0  0  0  0  0  0
    8.7336   24.5299    1.8353 H   0  0  0  0  0  0  0  0  0  0  0  0
    9.7963   25.9780    1.8353 H   0  0  0  0  0  0  0  0  0  0  0  0
    6.5818   26.6079    3.7193 H   0  0  0  0  0  0  0  0  0  0  0  0
    7.4929   27.2023    2.2899 H   0  0  0  0  0  0  0  0  0  0  0  0
    6.8046   25.5431    2.2899 H   0  0  0  0  0  0  0  0  0  0  0  0
    7.1925   24.7278    4.6934 H   0  0  0  0  0  0  0  0  0  0  0  0
    8.9171   24.0520    4.4590 H   0  0  0  0  0  0  0  0  0  0  0  0
    9.4051   24.6737    6.4681 H   0  0  0  0  0  0  0  0  0  0  0  0
   10.3070   26.5420    6.0870 H   0  0  0  0  0  0  0  0  0  0  0  0
    7.3996   24.6627    7.6122 H   0  0  0  0  0  0  0  0  0  0  0  0
    7.6078   26.4460    7.6166 H   0  0  0  0  0  0  0  0  0  0  0  0
    4.5446   27.1021    4.6100 H   0  0  0  0  0  0  0  0  0  0  0  0
    3.0524   28.8936    5.4795 H   0  0  0  0  0  0  0  0  0  0  0  0
    3.3560   30.6290    8.2440 H   0  0  0  0  0  0  0  0  0  0  0  0
   -1.3708   30.9656    7.6269 H   0  0  0  0  0  0  0  0  0  0  0  0
   -2.0133   29.8278    9.7353 H   0  0  0  0  0  0  0  0  0  0  0  0
   -0.9110   30.0258   12.6912 H   0  0  0  0  0  0  0  0  0  0  0  0
   -0.0554   21.6825   12.3120 H   0  0  0  0  0  0  0  0  0  0  0  0
    1.5148   22.5759   12.3445 H   0  0  0  0  0  0  0  0  0  0  0  0
    1.6410   20.4879   13.6600 H   0  0  0  0  0  0  0  0  0  0  0  0
    1.8131   21.9767   14.7043 H   0  0  0  0  0  0  0  0  0  0  0  0
   -1.7820   21.5988   14.3916 H   0  0  0  0  0  0  0  0  0  0  0  0
   -1.3001   21.8175   16.1461 H   0  0  0  0  0  0  0  0  0  0  0  0
   -1.4375   23.9735   14.9442 H   0  0  0  0  0  0  0  0  0  0  0  0
    0.2224   23.6042   15.5396 H   0  0  0  0  0  0  0  0  0  0  0  0
    0.5110   23.8655   10.7662 H   0  0  0  0  0  0  0  0  0  0  0  0
    0.4908   26.0571    9.6648 H   0  0  0  0  0  0  0  0  0  0  0  0
    4.6492   28.3102    9.4373 H   0  0  0  0  0  0  0  0  0  0  0  0
    6.1372   26.5202    8.5723 H   0  0  0  0  0  0  0  0  0  0  0  0
  1  2  1  0
  2  3  1  0
  2  4  1  0
  4  5  1  0
  5  6  1  0
  5  7  1  0
  7  8  1  0
  8  9  1  0
  9 10  2  0
 10 11  1  0
 11 12  2  0
 12 13  1  0
 13 14  1  0
 14 15  2  0
 15 16  1  0
 16 17  2  0
 17 18  1  0
 18 19  1  0
 19 20  1  0
 20 21  2  0
 21 22  1  0
 22 23  1  0
 23 24  2  0
 24 25  1  0
 25 26  1  0
 26 27  1  0
 27 28  1  0
 28 29  1  0
 29 30  1  0
 24 31  1  0
 31 32  2  0
 32 33  1  0
 18 34  2  0
 12 35  1  0
 35 36  2  0
 36  9  1  0
 34 14  1  0
 33 19  2  0
 33 22  1  0
 30 25  1  0
  1 37  1  0
  1 38  1  0
  1 39  1  0
  3 40  1  0
  3 41  1  0
  3 42  1  0
  4 43  1  0
  4 44  1  0
  5 45  1  1
  6 46  1  0
  7 47  1  0
  7 48  1  0
 10 49  1  0
 11 50  1  0
 13 51  1  0
 16 52  1  0
 17 53  1  0
 20 54  1  0
 26 55  1  0
 26 56  1  0
 27 57  1  0
 27 58  1  0
 29 59  1  0
 29 60  1  0
 30 61  1  0
 30 62  1  0
 31 63  1  0
 32 64  1  0
 35 65  1  0
 36 66  1  0
M  END
>  <vina_affinity>  (39) 
-8.516

$$$$
act_514883
     RDKit          3D

 57 60  0  0  0  0  0  0  0  0999 V2000
    1.3750   19.8330   14.4750 C   0  0  0  0  0  0  0  0  0  0  0  0
    0.2770   20.4460   15.2640 C   0  0  0  0  0  0  0  0  0  0  0  0
    0.2110   20.3840   16.5780 N   0  0  0  0  0  0  0  0  0  0  0  0
   -0.9010   21.0860   16.9320 C   0  0  0  0  0  0  0  0  0  0  0  0
   -1.5570   21.5920   15.8270 C   0  0  0  0  0  0  0  0  0  0  0  0
   -2.7610   22.4140   15.7760 C   0  0  0  0  0  0  0  0  0  0  0  0
   -3.9800   21.9300   16.1850 C   0  0  0  0  0  0  0  0  0  0  0  0
   -5.0190   22.8200   16.1000 C   0  0  0  0  0  0  0  0  0  0  0  0
   -4.8770   24.0830   15.6600 N   0  0  0  0  0  0  0  0  0  0  0  0
   -3.6490   24.4770   15.2930 C   0  0  0  0  0  0  0  0  0  0  0  0
   -3.3900   25.7680   14.8410 N   0  0  0  0  0  0  0  0  0  0  0  0
   -2.5010   26.3140   13.9090 C   0  0  0  0  0  0  0  0  0  0  0  0
   -2.8760   26.3220   12.5530 C   0  0  0  0  0  0  0  0  0  0  0  0
   -2.0320   26.8390   11.5650 C   0  0  0  0  0  0  0  0  0  0  0  0
   -0.7850   27.3430   11.9280 C   0  0  0  0  0  0  0  0  0  0  0  0
    0.3050   27.9960   10.6840 S   0  0  0  0  0  0  0  0  0  0  0  0
    1.0110   29.1270   11.2600 O   0  0  0  0  0  0  0  0  0  0  0  0
    1.0620   26.8690   10.1650 O   0  0  0  0  0  0  0  0  0  0  0  0
   -0.7700   28.5690    9.3760 C   0  0  0  0  0  0  0  0  0  0  0  0
   -1.0350   30.0460    9.4850 C   0  0  0  0  0  0  0  0  0  0  0  0
   -0.2810   30.9670    8.7440 C   0  0  0  0  0  0  0  0  0  0  0  0
   -0.5220   32.3360    8.8580 C   0  0  0  0  0  0  0  0  0  0  0  0
   -1.5200   32.8010    9.7120 C   0  0  0  0  0  0  0  0  0  0  0  0
   -2.2810   31.8970   10.4500 C   0  0  0  0  0  0  0  0  0  0  0  0
   -2.0440   30.5270   10.3360 C   0  0  0  0  0  0  0  0  0  0  0  0
   -0.3950   27.3670   13.2660 C   0  0  0  0  0  0  0  0  0  0  0  0
   -1.2500   26.8470   14.2440 C   0  0  0  0  0  0  0  0  0  0  0  0
   -2.5760   23.6730   15.3360 N   0  0  0  0  0  0  0  0  0  0  0  0
   -0.8060   21.1390   14.7470 N   0  0  0  0  0  0  0  0  0  0  0  0
   -1.1450   21.3460   13.3380 C   0  0  0  0  0  0  0  0  0  0  0  0
   -0.2460   22.3930   12.6810 C   0  0  0  0  0  0  0  0  0  0  0  0
   -1.2150   20.0600   12.5090 C   0  0  0  0  0  0  0  0  0  0  0  0
    2.1275   19.4129   15.1586 H   0  0  0  0  0  0  0  0  0  0  0  0
    0.9677   19.0317   13.8409 H   0  0  0  0  0  0  0  0  0  0  0  0
    1.8434   20.6001   13.8409 H   0  0  0  0  0  0  0  0  0  0  0  0
   -1.2354   21.2320   17.9697 H   0  0  0  0  0  0  0  0  0  0  0  0
   -4.1126   20.9023   16.5541 H   0  0  0  0  0  0  0  0  0  0  0  0
   -6.0203   22.4840   16.4074 H   0  0  0  0  0  0  0  0  0  0  0  0
   -4.0100   26.4090   15.3130 H   0  0  0  0  0  0  0  0  0  0  0  0
   -3.8550   25.9124   12.2635 H   0  0  0  0  0  0  0  0  0  0  0  0
   -2.3496   26.8476   10.5119 H   0  0  0  0  0  0  0  0  0  0  0  0
   -0.2939   28.3622    8.4062 H   0  0  0  0  0  0  0  0  0  0  0  0
   -1.7303   28.0395    9.4627 H   0  0  0  0  0  0  0  0  0  0  0  0
    0.5075   30.6067    8.0669 H   0  0  0  0  0  0  0  0  0  0  0  0
    0.0766   33.0496    8.2729 H   0  0  0  0  0  0  0  0  0  0  0  0
   -1.7069   33.8811    9.8034 H   0  0  0  0  0  0  0  0  0  0  0  0
   -3.0696   32.2639   11.1234 H   0  0  0  0  0  0  0  0  0  0  0  0
   -2.6519   29.8178   10.9170 H   0  0  0  0  0  0  0  0  0  0  0  0
    0.5787   27.7920   13.5512 H   0  0  0  0  0  0  0  0  0  0  0  0
   -0.9331   26.8571   15.2973 H   0  0  0  0  0  0  0  0  0  0  0  0
   -2.1724   21.7389   13.3494 H   0  0  0  0  0  0  0  0  0  0  0  0
    0.2601   22.9824   13.4598 H   0  0  0  0  0  0  0  0  0  0  0  0
    0.5059   21.8900   12.0552 H   0  0  0  0  0  0  0  0  0  0  0  0
   -0.8570   23.0602   12.0552 H   0  0  0  0  0  0  0  0  0  0  0  0
   -1.2623   19.1916   13.1826 H   0  0  0  0  0  0  0  0  0  0  0  0
   -2.1133   20.0812   11.8745 H   0  0  0  0  0  0  0  0  0  0  0  0
   -0.3197   19.9836   11.8745 H   0  0  0  0  0  0  0  0  0  0  0  0
  1  2  1  0
  2  3  2  0
  3  4  1  0
  4  5  2  0
  5  6  1  0
  6  7  2  0
  7  8  1  0
  8  9  2  0
  9 10  1  0
 10 11  1  0
 11 12  1  0
 12 13  2  0
 13 14  1  0
 14 15  2  0
 15 16  1  0
 16 17  2  0
 16 18  2  0
 16 19  1  0
 19 20  1  0
 20 21  2  0
 21 22  1  0
 22 23  2  0
 23 24  1  0
 24 25  2  0
 15 26  1  0
 26 27  2  0
 10 28  2  0
  5 29  1  0
 29 30  1  0
 30 31  1  0
 30 32  1  0
 29  2  1  0
 28  6  1  0
 27 12  1  0
 25 20  1  0
  1 33  1  0
  1 34  1  0
  1 35  1  0
  4 36  1  0
  7 37  1  0
  8 38  1  0
 11 39  1  0
 13 40  1  0
 14 41  1  0
 19 42  1  0
 19 43  1  0
 21 44  1  0
 22 45  1  0
 23 46  1  0
 24 47  1  0
 25 48  1  0
 26 49  1  0
 27 50  1  0
 30 51  1  0
 31 52  1  0
 31 53  1  0
 31 54  1  0
 32 55  1  0
 32 56  1  0
 32 57  1  0
M  END
>  <vina_affinity>  (40) 
-8.729

$$$$
act_314797
     RDKit          3D

 27 29  0  0  0  0  0  0  0  0999 V2000
    1.4800   32.2640    7.4540 C   0  0  0  0  0  0  0  0  0  0  0  0
    1.0720   30.8260    7.1760 C   0  0  0  0  0  0  0  0  0  0  0  0
    0.8110   30.0660    8.3850 N   0  0  0  0  0  0  0  0  0  0  0  0
    1.5970   29.0910    8.9700 C   0  0  0  0  0  0  0  0  0  0  0  0
    3.0970   28.6810    8.6770 C   0  0  0  0  0  0  0  0  0  0  0  0
    3.9160   29.5540    8.0770 N   0  0  0  0  0  0  0  0  0  0  0  0
    5.1580   28.9430    8.0570 O   0  0  0  0  0  0  0  0  0  0  0  0
    5.0950   27.6640    8.5860 N   0  0  0  0  0  0  0  0  0  0  0  0
    3.8190   27.4860    8.9200 C   0  0  0  0  0  0  0  0  0  0  0  0
    3.3440   26.2860    9.3360 N   0  0  0  0  0  0  0  0  0  0  0  0
    0.8960   28.4300    9.8770 N   0  0  0  0  0  0  0  0  0  0  0  0
   -0.3340   29.0250    9.9390 C   0  0  0  0  0  0  0  0  0  0  0  0
   -1.4390   28.7370   10.7450 C   0  0  0  0  0  0  0  0  0  0  0  0
   -2.5840   29.4610   10.6240 N   0  0  0  0  0  0  0  0  0  0  0  0
   -2.6310   30.4510    9.7040 C   0  0  0  0  0  0  0  0  0  0  0  0
   -1.5900   30.8070    8.8570 C   0  0  0  0  0  0  0  0  0  0  0  0
   -0.4220   30.0580    9.0140 C   0  0  0  0  0  0  0  0  0  0  0  0
    1.5266   32.4284    8.5407 H   0  0  0  0  0  0  0  0  0  0  0  0
    2.4683   32.4569    7.0112 H   0  0  0  0  0  0  0  0  0  0  0  0
    0.7402   32.9472    7.0112 H   0  0  0  0  0  0  0  0  0  0  0  0
    0.1589   30.8332    6.5626 H   0  0  0  0  0  0  0  0  0  0  0  0
    1.9117   30.3404    6.6573 H   0  0  0  0  0  0  0  0  0  0  0  0
    4.0480   25.6560    9.7140 H   0  0  0  0  0  0  0  0  0  0  0  0
    2.6070   26.3840   10.0350 H   0  0  0  0  0  0  0  0  0  0  0  0
   -1.3823   27.9211   11.4805 H   0  0  0  0  0  0  0  0  0  0  0  0
   -3.5688   31.0197    9.6200 H   0  0  0  0  0  0  0  0  0  0  0  0
   -1.6786   31.6174    8.1185 H   0  0  0  0  0  0  0  0  0  0  0  0
  1  2  1  0
  2  3  1  0
  3  4  1  0
  4  5  1  0
  5  6  2  0
  6  7  1  0
  7  8  1  0
  8  9  2  0
  9 10  1  0
  4 11  2  0
 11 12  1  0
 12 13  2  0
 13 14  1  0
 14 15  2  0
 15 16  1  0
 16 17  2  0
 17  3  1  0
  9  5  1  0
 17 12  1  0
  1 18  1  0
  1 19  1  0
  1 20  1  0
  2 21  1  0
  2 22  1  0
 10 23  1  0
 10 24  1  0
 13 25  1  0
 15 26  1  0
 16 27  1  0
M  END
>  <vina_affinity>  (41) 
-6.305

$$$$
act_316203
     RDKit          3D

 42 45  0  0  0  0  0  0  0  0999 V2000
   -1.5200   32.6930    9.3330 C   0  0  0  0  0  0  0  0  0  0  0  0
   -1.9310   31.3430    8.7660 C   0  0  0  0  0  0  0  0  0  0  0  0
   -1.1130   30.2250    9.3210 C   0  0  0  0  0  0  0  0  0  0  0  0
   -1.6240   29.4220   10.2660 N   0  0  0  0  0  0  0  0  0  0  0  0
   -0.6370   28.5220   10.5210 N   0  0  0  0  0  0  0  0  0  0  0  0
   -0.8440   27.4730   11.4440 C   0  0  0  0  0  0  0  0  0  0  0  0
   -0.9390   26.1410   11.0040 C   0  0  0  0  0  0  0  0  0  0  0  0
   -0.9700   25.6760    9.3360 Cl  0  0  0  0  0  0  0  0  0  0  0  0
   -1.1360   25.1110   11.9310 C   0  0  0  0  0  0  0  0  0  0  0  0
   -1.2520   25.4050   13.2850 C   0  0  0  0  0  0  0  0  0  0  0  0
   -1.4970   24.1340   14.4170 Cl  0  0  0  0  0  0  0  0  0  0  0  0
   -1.1750   26.7200   13.7300 C   0  0  0  0  0  0  0  0  0  0  0  0
   -0.9710   27.7580   12.8140 C   0  0  0  0  0  0  0  0  0  0  0  0
   -0.7700   29.3400   13.4900 Cl  0  0  0  0  0  0  0  0  0  0  0  0
    0.5080   28.7800    9.7850 C   0  0  0  0  0  0  0  0  0  0  0  0
    1.6950   28.1400    9.8430 N   0  0  0  0  0  0  0  0  0  0  0  0
    2.6070   28.6430    8.9800 C   0  0  0  0  0  0  0  0  0  0  0  0
    3.9620   27.9760    8.9610 C   0  0  0  0  0  0  0  0  0  0  0  0
    4.2260   27.1940    7.6980 C   0  0  0  0  0  0  0  0  0  0  0  0
    4.4780   27.8480    6.4910 C   0  0  0  0  0  0  0  0  0  0  0  0
    4.7290   27.0910    5.3500 C   0  0  0  0  0  0  0  0  0  0  0  0
    4.7290   25.7050    5.4400 C   0  0  0  0  0  0  0  0  0  0  0  0
    4.4800   25.1310    6.6740 C   0  0  0  0  0  0  0  0  0  0  0  0
    4.2340   25.8400    7.7980 N   0  0  0  0  0  0  0  0  0  0  0  0
    2.4160   29.6840    8.1340 N   0  0  0  0  0  0  0  0  0  0  0  0
    1.2250   30.2930    8.1510 C   0  0  0  0  0  0  0  0  0  0  0  0
    1.1050   31.3490    7.2970 O   0  0  0  0  0  0  0  0  0  0  0  0
    0.2110   29.8680    8.9880 C   0  0  0  0  0  0  0  0  0  0  0  0
   -1.5335   32.6486   10.4320 H   0  0  0  0  0  0  0  0  0  0  0  0
   -0.5054   32.9418    8.9885 H   0  0  0  0  0  0  0  0  0  0  0  0
   -2.2238   33.4650    8.9885 H   0  0  0  0  0  0  0  0  0  0  0  0
   -2.9884   31.1634    9.0104 H   0  0  0  0  0  0  0  0  0  0  0  0
   -1.7703   31.3709    7.6782 H   0  0  0  0  0  0  0  0  0  0  0  0
   -1.1991   24.0678   11.5880 H   0  0  0  0  0  0  0  0  0  0  0  0
   -1.2745   26.9444   14.8023 H   0  0  0  0  0  0  0  0  0  0  0  0
    4.7347   28.7529    9.0583 H   0  0  0  0  0  0  0  0  0  0  0  0
    3.9844   27.2612    9.7968 H   0  0  0  0  0  0  0  0  0  0  0  0
    4.4783   28.9469    6.4420 H   0  0  0  0  0  0  0  0  0  0  0  0
    4.9253   27.5854    4.3872 H   0  0  0  0  0  0  0  0  0  0  0  0
    4.9216   25.0810    4.5548 H   0  0  0  0  0  0  0  0  0  0  0  0
    4.4824   24.0333    6.7444 H   0  0  0  0  0  0  0  0  0  0  0  0
    0.3750   31.8350    7.7220 H   0  0  0  0  0  0  0  0  0  0  0  0
  1  2  1  0
  2  3  1  0
  3  4  2  0
  4  5  1  0
  5  6  1  0
  6  7  2  0
  7  8  1  0
  7  9  1  0
  9 10  2  0
 10 11  1  0
 10 12  1  0
 12 13  2  0
 13 14  1  0
  5 15  1  0
 15 16  2  0
 16 17  1  0
 17 18  1  0
 18 19  1  0
 19 20  2  0
 20 21  1  0
 21 22  2  0
 22 23  1  0
 23 24  2  0
 17 25  2  0
 25 26  1  0
 26 27  1  0
 26 28  2  0
 28  3  1  0
 13  6  1  0
 28 15  1  0
 24 19  1  0
  1 29  1  0
  1 30  1  0
  1 31  1  0
  2 32  1  0
  2 33  1  0
  9 34  1  0
 12 35  1  0
 18 36  1  0
 18 37  1  0
 20 38  1  0
 21 39  1  0
 22 40  1  0
 23 41  1  0
 27 42  1  0
M  END
>  <vina_affinity>  (42) 
-8.739

$$$$
act_590207
     RDKit          3D

 50 55  0  0  0  0  0  0  0  0999 V2000
   -2.7060   19.6590   16.8360 N   0  0  0  0  0  0  0  0  0  0  0  0
   -1.9520   20.3420   15.7850 C   0  0  0  0  0  0  0  0  0  0  0  0
   -1.2580   21.6200   16.2700 C   0  0  0  0  0  0  0  0  0  0  0  0
   -1.3970   22.7410   15.3540 N   0  0  0  0  0  0  0  0  0  0  0  0
   -0.4400   23.1230   14.4450 C   0  0  0  0  0  0  0  0  0  0  0  0
   -0.9220   24.2030   13.7240 C   0  0  0  0  0  0  0  0  0  0  0  0
   -0.1650   24.8690   12.6710 C   0  0  0  0  0  0  0  0  0  0  0  0
   -0.4810   26.1810   12.2850 C   0  0  0  0  0  0  0  0  0  0  0  0
    0.2380   26.8520   11.2820 C   0  0  0  0  0  0  0  0  0  0  0  0
   -0.1040   28.2050   10.8580 C   0  0  0  0  0  0  0  0  0  0  0  0
    0.2820   28.8620    9.7080 C   0  0  0  0  0  0  0  0  0  0  0  0
   -0.2540   30.1880    9.6010 C   0  0  0  0  0  0  0  0  0  0  0  0
   -0.0870   31.1700    8.5960 C   0  0  0  0  0  0  0  0  0  0  0  0
   -0.7200   32.4130    8.7090 C   0  0  0  0  0  0  0  0  0  0  0  0
   -1.5200   32.6930    9.8080 C   0  0  0  0  0  0  0  0  0  0  0  0
   -1.7060   31.7420   10.8130 C   0  0  0  0  0  0  0  0  0  0  0  0
   -1.0650   30.4930   10.6960 C   0  0  0  0  0  0  0  0  0  0  0  0
   -1.1450   29.1770   11.8020 S   0  0  0  0  0  0  0  0  0  0  0  0
    1.2780   26.1450   10.6640 C   0  0  0  0  0  0  0  0  0  0  0  0
    2.1480   26.4740    9.6550 N   0  0  0  0  0  0  0  0  0  0  0  0
    3.0200   25.5010    9.3360 N   0  0  0  0  0  0  0  0  0  0  0  0
    2.6890   24.5080   10.1650 C   0  0  0  0  0  0  0  0  0  0  0  0
    1.6110   24.8420   11.0150 C   0  0  0  0  0  0  0  0  0  0  0  0
    0.8870   24.1930   12.0310 C   0  0  0  0  0  0  0  0  0  0  0  0
   -2.2380   24.4600   14.2140 C   0  0  0  0  0  0  0  0  0  0  0  0
   -3.1320   25.4000   13.8360 N   0  0  0  0  0  0  0  0  0  0  0  0
   -4.2770   25.3850   14.5190 C   0  0  0  0  0  0  0  0  0  0  0  0
   -5.2330   26.3180   14.1640 N   0  0  0  0  0  0  0  0  0  0  0  0
   -4.6200   24.5210   15.4850 N   0  0  0  0  0  0  0  0  0  0  0  0
   -3.7280   23.5840   15.8620 C   0  0  0  0  0  0  0  0  0  0  0  0
   -2.5060   23.5410   15.2220 C   0  0  0  0  0  0  0  0  0  0  0  0
   -3.5750   20.1560   17.0300 H   0  0  0  0  0  0  0  0  0  0  0  0
   -2.1710   19.6730   17.7040 H   0  0  0  0  0  0  0  0  0  0  0  0
   -1.1856   19.6527   15.4009 H   0  0  0  0  0  0  0  0  0  0  0  0
   -2.6714   20.6369   15.0069 H   0  0  0  0  0  0  0  0  0  0  0  0
   -1.6937   21.9062   17.2386 H   0  0  0  0  0  0  0  0  0  0  0  0
   -0.1837   21.3955   16.3447 H   0  0  0  0  0  0  0  0  0  0  0  0
    0.5443   22.6502   14.3121 H   0  0  0  0  0  0  0  0  0  0  0  0
   -1.3150   26.6982   12.7818 H   0  0  0  0  0  0  0  0  0  0  0  0
    0.9371   28.4126    8.9472 H   0  0  0  0  0  0  0  0  0  0  0  0
    0.5440   30.9552    7.7209 H   0  0  0  0  0  0  0  0  0  0  0  0
   -0.5830   33.1710    7.9237 H   0  0  0  0  0  0  0  0  0  0  0  0
   -2.0122   33.6735    9.8879 H   0  0  0  0  0  0  0  0  0  0  0  0
   -2.3427   31.9643   11.6820 H   0  0  0  0  0  0  0  0  0  0  0  0
    2.1960   27.3530    9.1520 H   0  0  0  0  0  0  0  0  0  0  0  0
    3.2007   23.5344   10.1841 H   0  0  0  0  0  0  0  0  0  0  0  0
    1.1426   23.1636   12.3224 H   0  0  0  0  0  0  0  0  0  0  0  0
   -6.0360   25.8480   13.7720 H   0  0  0  0  0  0  0  0  0  0  0  0
   -5.3890   26.9480   14.9370 H   0  0  0  0  0  0  0  0  0  0  0  0
   -3.9686   22.8689   16.6625 H   0  0  0  0  0  0  0  0  0  0  0  0
  1  2  1  0
  2  3  1  0
  3  4  1  0
  4  5  1  0
  5  6  2  0
  6  7  1  0
  7  8  2  0
  8  9  1  0
  9 10  1  0
 10 11  2  0
 11 12  1  0
 12 13  2  0
 13 14  1  0
 14 15  2  0
 15 16  1  0
 16 17  2  0
 17 18  1  0
  9 19  2  0
 19 20  1  0
 20 21  1  0
 21 22  2  0
 22 23  1  0
 23 24  2  0
  6 25  1  0
 25 26  2  0
 26 27  1  0
 27 28  1  0
 27 29  2  0
 29 30  1  0
 30 31  2  0
 31  4  1  0
 24  7  1  0
 31 25  1  0
 18 10  1  0
 23 19  1  0
 17 12  1  0
  1 32  1  0
  1 33  1  0
  2 34  1  0
  2 35  1  0
  3 36  1  0
  3 37  1  0
  5 38  1  0
  8 39  1  0
 11 40  1  0
 13 41  1  0
 14 42  1  0
 15 43  1  0
 16 44  1  0
 20 45  1  0
 22 46  1  0
 24 47  1  0
 28 48  1  0
 28 49  1  0
 30 50  1  0
M  END
>  <vina_affinity>  (43) 
-8.853

$$$$
act_574809
     RDKit          3D

 54 57  0  0  0  0  0  0  0  0999 V2000
   -1.5200   33.0660    9.8480 C   0  0  0  0  0  0  0  0  0  0  0  0
   -0.5390   32.3090    9.0180 C   0  0  0  0  0  0  0  0  0  0  0  0
    0.3200   32.9680    8.1670 C   0  0  0  0  0  0  0  0  0  0  0  0
    1.2380   32.3590    7.3950 N   0  0  0  0  0  0  0  0  0  0  0  0
    1.3140   31.0250    7.4640 C   0  0  0  0  0  0  0  0  0  0  0  0
    2.2290   30.2920    6.7150 N   0  0  0  0  0  0  0  0  0  0  0  0
    3.1590   29.2910    7.0140 C   0  0  0  0  0  0  0  0  0  0  0  0
    3.5600   28.9590    8.3120 C   0  0  0  0  0  0  0  0  0  0  0  0
    4.4960   27.9460    8.5450 C   0  0  0  0  0  0  0  0  0  0  0  0
    5.0490   27.2420    7.4800 C   0  0  0  0  0  0  0  0  0  0  0  0
    4.6650   27.5530    6.1800 C   0  0  0  0  0  0  0  0  0  0  0  0
    3.7300   28.5680    5.9530 C   0  0  0  0  0  0  0  0  0  0  0  0
    0.5190   30.2880    8.2510 N   0  0  0  0  0  0  0  0  0  0  0  0
   -0.4020   30.9330    9.0040 C   0  0  0  0  0  0  0  0  0  0  0  0
   -1.2420   30.0480    9.8030 C   0  0  0  0  0  0  0  0  0  0  0  0
   -2.6110   30.1960    9.9000 C   0  0  0  0  0  0  0  0  0  0  0  0
   -3.0910   29.2140   10.7220 N   0  0  0  0  0  0  0  0  0  0  0  0
   -2.0570   28.4360   11.1960 C   0  0  0  0  0  0  0  0  0  0  0  0
   -2.2990   27.3320   12.1000 C   0  0  0  0  0  0  0  0  0  0  0  0
   -3.4330   26.9980   12.4340 O   0  0  0  0  0  0  0  0  0  0  0  0
   -1.1750   26.6950   12.5620 N   0  0  0  0  0  0  0  0  0  0  0  0
   -1.2550   25.7080   13.6270 C   0  0  2  0  0  0  0  0  0  0  0  0
   -0.9840   26.3440   15.0140 C   0  0  0  0  0  0  0  0  0  0  0  0
   -1.8950   27.4070   15.3080 O   0  0  0  0  0  0  0  0  0  0  0  0
   -0.3590   24.5260   13.2900 C   0  0  0  0  0  0  0  0  0  0  0  0
    0.5650   24.6410   12.2360 C   0  0  0  0  0  0  0  0  0  0  0  0
    1.4180   23.5840   11.9120 C   0  0  0  0  0  0  0  0  0  0  0  0
    1.3690   22.3990   12.6410 C   0  0  0  0  0  0  0  0  0  0  0  0
    0.4710   22.2730   13.6990 C   0  0  0  0  0  0  0  0  0  0  0  0
   -0.3810   23.3310   14.0250 C   0  0  0  0  0  0  0  0  0  0  0  0
   -0.8960   28.9440   10.6320 C   0  0  0  0  0  0  0  0  0  0  0  0
   -1.3042   32.8995   10.9137 H   0  0  0  0  0  0  0  0  0  0  0  0
   -1.4410   34.1395    9.6212 H   0  0  0  0  0  0  0  0  0  0  0  0
   -2.5383   32.7174    9.6212 H   0  0  0  0  0  0  0  0  0  0  0  0
    0.2509   34.0646    8.1151 H   0  0  0  0  0  0  0  0  0  0  0  0
    2.1740   30.5960    5.7540 H   0  0  0  0  0  0  0  0  0  0  0  0
    3.1314   29.5046    9.1656 H   0  0  0  0  0  0  0  0  0  0  0  0
    4.7963   27.7048    9.5753 H   0  0  0  0  0  0  0  0  0  0  0  0
    5.7845   26.4453    7.6648 H   0  0  0  0  0  0  0  0  0  0  0  0
    5.0961   27.0014    5.3315 H   0  0  0  0  0  0  0  0  0  0  0  0
    3.4349   28.8058    4.9203 H   0  0  0  0  0  0  0  0  0  0  0  0
   -3.2125   30.9706    9.4018 H   0  0  0  0  0  0  0  0  0  0  0  0
   -4.0620   29.0680   10.9730 H   0  0  0  0  0  0  0  0  0  0  0  0
   -0.2950   27.1820   12.4840 H   0  0  0  0  0  0  0  0  0  0  0  0
   -2.2806   25.3173   13.7008 H   0  0  0  0  0  0  0  0  0  0  0  0
   -1.0852   25.5669   15.7860 H   0  0  0  0  0  0  0  0  0  0  0  0
    0.0324   26.7643   15.0001 H   0  0  0  0  0  0  0  0  0  0  0  0
   -1.5680   27.8370   16.1180 H   0  0  0  0  0  0  0  0  0  0  0  0
    0.6164   25.5762   11.6591 H   0  0  0  0  0  0  0  0  0  0  0  0
    2.1296   23.6878   11.0796 H   0  0  0  0  0  0  0  0  0  0  0  0
    2.0373   21.5644   12.3825 H   0  0  0  0  0  0  0  0  0  0  0  0
    0.4329   21.3388   14.2785 H   0  0  0  0  0  0  0  0  0  0  0  0
   -1.0784   23.2258   14.8691 H   0  0  0  0  0  0  0  0  0  0  0  0
    0.1209   28.5585   10.7976 H   0  0  0  0  0  0  0  0  0  0  0  0
  1  2  1  0
  2  3  2  0
  3  4  1  0
  4  5  2  0
  5  6  1  0
  6  7  1  0
  7  8  2  0
  8  9  1  0
  9 10  2  0
 10 11  1  0
 11 12  2  0
  5 13  1  0
 13 14  2  0
 14 15  1  0
 15 16  2  0
 16 17  1  0
 17 18  1  0
 18 19  1  0
 19 20  2  0
 19 21  1  0
 21 22  1  0
 22 23  1  0
 23 24  1  0
 22 25  1  0
 25 26  2  0
 26 27  1  0
 27 28  2  0
 28 29  1  0
 29 30  2  0
 18 31  2  0
 14  2  1  0
 31 15  1  0
 12  7  1  0
 30 25  1  0
  1 32  1  0
  1 33  1  0
  1 34  1  0
  3 35  1  0
  6 36  1  0
  8 37  1  0
  9 38  1  0
 10 39  1  0
 11 40  1  0
 12 41  1  0
 16 42  1  0
 17 43  1  0
 21 44  1  0
 22 45  1  1
 23 46  1  0
 23 47  1  0
 24 48  1  0
 26 49  1  0
 27 50  1  0
 28 51  1  0
 29 52  1  0
 30 53  1  0
 31 54  1  0
M  END
>  <vina_affinity>  (44) 
-9.412

$$$$
act_313265
     RDKit          3D

 38 41  0  0  0  0  0  0  0  0999 V2000
   -2.1550   31.0000   10.4830 N   0  0  0  0  0  0  0  0  0  0  0  0
   -1.0580   30.6390    9.8110 C   0  0  0  0  0  0  0  0  0  0  0  0
   -0.7810   31.2250    8.6210 N   0  0  0  0  0  0  0  0  0  0  0  0
    0.3530   30.6810    8.2410 C   0  0  0  0  0  0  0  0  0  0  0  0
    1.1510   30.9090    7.0860 C   0  0  0  0  0  0  0  0  0  0  0  0
    2.3230   30.2610    6.9380 C   0  0  0  0  0  0  0  0  0  0  0  0
    2.8020   29.3130    7.9420 C   0  0  0  0  0  0  0  0  0  0  0  0
    4.1020   28.5760    7.8540 C   0  0  0  0  0  0  0  0  0  0  0  0
    5.0730   28.8740    8.5420 O   0  0  0  0  0  0  0  0  0  0  0  0
    4.2140   27.4530    6.9210 C   0  0  0  0  0  0  0  0  0  0  0  0
    4.4800   27.6920    5.5770 C   0  0  0  0  0  0  0  0  0  0  0  0
    4.5730   28.9430    5.1080 F   0  0  0  0  0  0  0  0  0  0  0  0
    4.6180   26.6290    4.6860 C   0  0  0  0  0  0  0  0  0  0  0  0
    4.4980   25.3160    5.1450 C   0  0  0  0  0  0  0  0  0  0  0  0
    4.2410   25.0730    6.4950 C   0  0  0  0  0  0  0  0  0  0  0  0
    4.1040   26.1430    7.3770 C   0  0  0  0  0  0  0  0  0  0  0  0
    3.8620   25.8870    8.6700 F   0  0  0  0  0  0  0  0  0  0  0  0
    2.0460   29.0990    9.0370 C   0  0  0  0  0  0  0  0  0  0  0  0
    0.8220   29.7580    9.1760 N   0  0  0  0  0  0  0  0  0  0  0  0
   -0.1290   29.6940   10.1770 C   0  0  0  0  0  0  0  0  0  0  0  0
   -0.1070   28.8730   11.3590 C   0  0  0  0  0  0  0  0  0  0  0  0
    0.2900   29.3150   12.4360 O   0  0  0  0  0  0  0  0  0  0  0  0
   -0.5790   27.4970   11.2210 C   0  0  0  0  0  0  0  0  0  0  0  0
   -1.1450   26.9410   10.0840 C   0  0  0  0  0  0  0  0  0  0  0  0
   -1.4860   25.5680   10.2500 C   0  0  0  0  0  0  0  0  0  0  0  0
   -1.1450   25.1040   11.5000 C   0  0  0  0  0  0  0  0  0  0  0  0
   -0.4100   26.3150   12.4540 S   0  0  0  0  0  0  0  0  0  0  0  0
   -2.3990   30.5030   11.3360 H   0  0  0  0  0  0  0  0  0  0  0  0
   -2.3220   31.9990   10.5560 H   0  0  0  0  0  0  0  0  0  0  0  0
    0.8113   31.6145    6.3134 H   0  0  0  0  0  0  0  0  0  0  0  0
    2.9326   30.4496    6.0420 H   0  0  0  0  0  0  0  0  0  0  0  0
    4.8212   26.8244    3.6227 H   0  0  0  0  0  0  0  0  0  0  0  0
    4.6058   24.4750    4.4442 H   0  0  0  0  0  0  0  0  0  0  0  0
    4.1469   24.0402    6.8616 H   0  0  0  0  0  0  0  0  0  0  0  0
    2.3918   28.4073    9.8193 H   0  0  0  0  0  0  0  0  0  0  0  0
   -1.3130   27.5010    9.1522 H   0  0  0  0  0  0  0  0  0  0  0  0
   -1.9640   24.9531    9.4732 H   0  0  0  0  0  0  0  0  0  0  0  0
   -1.3246   24.0747   11.8440 H   0  0  0  0  0  0  0  0  0  0  0  0
  1  2  1  0
  2  3  1  0
  3  4  2  0
  4  5  1  0
  5  6  2  0
  6  7  1  0
  7  8  1  0
  8  9  2  0
  8 10  1  0
 10 11  2  0
 11 12  1  0
 11 13  1  0
 13 14  2  0
 14 15  1  0
 15 16  2  0
 16 17  1  0
  7 18  2  0
 18 19  1  0
 19 20  1  0
 20 21  1  0
 21 22  2  0
 21 23  1  0
 23 24  2  0
 24 25  1  0
 25 26  2  0
 26 27  1  0
 20  2  2  0
 27 23  1  0
 19  4  1  0
 16 10  1  0
  1 28  1  0
  1 29  1  0
  5 30  1  0
  6 31  1  0
 13 32  1  0
 14 33  1  0
 15 34  1  0
 18 35  1  0
 24 36  1  0
 25 37  1  0
 26 38  1  0
M  END
>  <vina_affinity>  (45) 
-8.618

$$$$
act_612819
     RDKit          3D

 50 53  0  0  0  0  0  0  0  0999 V2000
   -2.8400   32.5520   11.2110 N   0  0  0  0  0  0  0  0  0  0  0  0
   -2.0070   31.5720   10.5020 C   0  0  2  0  0  0  0  0  0  0  0  0
   -1.8990   31.9270    9.0040 C   0  0  0  0  0  0  0  0  0  0  0  0
   -0.6970   32.7980    8.6250 C   0  0  0  0  0  0  0  0  0  0  0  0
    0.4170   31.9710    8.1000 C   0  0  0  0  0  0  0  0  0  0  0  0
    0.9200   30.7310    8.4050 C   0  0  0  0  0  0  0  0  0  0  0  0
    2.0090   30.5440    7.5080 C   0  0  0  0  0  0  0  0  0  0  0  0
    2.9110   29.3930    7.3870 C   0  0  0  0  0  0  0  0  0  0  0  0
    3.3510   28.7120    8.5320 C   0  0  0  0  0  0  0  0  0  0  0  0
    4.2080   27.6120    8.4310 C   0  0  0  0  0  0  0  0  0  0  0  0
    4.6450   27.1680    7.1740 C   0  0  0  0  0  0  0  0  0  0  0  0
    5.5000   26.0760    7.0110 C   0  0  0  0  0  0  0  0  0  0  0  0
    5.9430   25.6200    5.8160 N   0  0  0  0  0  0  0  0  0  0  0  0
    5.5160   26.2840    4.7240 C   0  0  0  0  0  0  0  0  0  0  0  0
    4.6680   27.3800    4.7670 C   0  0  0  0  0  0  0  0  0  0  0  0
    4.2170   27.8370    6.0120 C   0  0  0  0  0  0  0  0  0  0  0  0
    3.3540   28.9430    6.1320 C   0  0  0  0  0  0  0  0  0  0  0  0
    2.1350   31.6240    6.7170 N   0  0  0  0  0  0  0  0  0  0  0  0
    1.1430   32.5050    7.0860 O   0  0  0  0  0  0  0  0  0  0  0  0
   -2.5160   30.1290   10.7200 C   0  0  0  0  0  0  0  0  0  0  0  0
   -1.4120   29.0970   10.7660 C   0  0  0  0  0  0  0  0  0  0  0  0
   -0.2510   29.3280   11.5140 C   0  0  0  0  0  0  0  0  0  0  0  0
    0.7720   28.3780   11.5510 C   0  0  0  0  0  0  0  0  0  0  0  0
    0.6580   27.1800   10.8320 C   0  0  0  0  0  0  0  0  0  0  0  0
    1.7520   26.1440   10.8870 C   0  0  0  0  0  0  0  0  0  0  0  0
    2.9800   26.6750   11.1550 F   0  0  0  0  0  0  0  0  0  0  0  0
    1.8880   25.4700    9.7110 F   0  0  0  0  0  0  0  0  0  0  0  0
    1.5460   25.1930   11.8410 F   0  0  0  0  0  0  0  0  0  0  0  0
   -0.5070   26.9480   10.0850 C   0  0  0  0  0  0  0  0  0  0  0  0
   -1.5290   27.9000   10.0490 C   0  0  0  0  0  0  0  0  0  0  0  0
   -2.3290   33.4290   11.3200 H   0  0  0  0  0  0  0  0  0  0  0  0
   -3.6840   32.7700   10.6850 H   0  0  0  0  0  0  0  0  0  0  0  0
   -0.9935   31.6165   10.9273 H   0  0  0  0  0  0  0  0  0  0  0  0
   -1.8312   30.9876    8.4357 H   0  0  0  0  0  0  0  0  0  0  0  0
   -2.7936   32.5211    8.7658 H   0  0  0  0  0  0  0  0  0  0  0  0
   -1.0046   33.5184    7.8528 H   0  0  0  0  0  0  0  0  0  0  0  0
   -0.3478   33.3231    9.5263 H   0  0  0  0  0  0  0  0  0  0  0  0
    0.5597   30.0333    9.1753 H   0  0  0  0  0  0  0  0  0  0  0  0
    3.0166   29.0487    9.5244 H   0  0  0  0  0  0  0  0  0  0  0  0
    4.5412   27.0922    9.3414 H   0  0  0  0  0  0  0  0  0  0  0  0
    5.8368   25.5499    7.9164 H   0  0  0  0  0  0  0  0  0  0  0  0
    5.8609   25.9356    3.7393 H   0  0  0  0  0  0  0  0  0  0  0  0
    4.3548   27.8819    3.8397 H   0  0  0  0  0  0  0  0  0  0  0  0
    3.0195   29.4658    5.2238 H   0  0  0  0  0  0  0  0  0  0  0  0
   -3.0643   30.0941   11.6730 H   0  0  0  0  0  0  0  0  0  0  0  0
   -3.1546   29.8793    9.8599 H   0  0  0  0  0  0  0  0  0  0  0  0
   -0.1437   30.2665   12.0777 H   0  0  0  0  0  0  0  0  0  0  0  0
    1.6746   28.5714   12.1492 H   0  0  0  0  0  0  0  0  0  0  0  0
   -0.6165   26.0087    9.5231 H   0  0  0  0  0  0  0  0  0  0  0  0
   -2.4330   27.7076    9.4525 H   0  0  0  0  0  0  0  0  0  0  0  0
  1  2  1  0
  2  3  1  0
  3  4  1  0
  4  5  1  0
  5  6  2  0
  6  7  1  0
  7  8  1  0
  8  9  2  0
  9 10  1  0
 10 11  2  0
 11 12  1  0
 12 13  2  0
 13 14  1  0
 14 15  2  0
 15 16  1  0
 16 17  2  0
  7 18  2  0
 18 19  1  0
  2 20  1  0
 20 21  1  0
 21 22  2  0
 22 23  1  0
 23 24  2  0
 24 25  1  0
 25 26  1  0
 25 27  1  0
 25 28  1  0
 24 29  1  0
 29 30  2  0
 19  5  1  0
 30 21  1  0
 17  8  1  0
 16 11  1  0
  1 31  1  0
  1 32  1  0
  2 33  1  1
  3 34  1  0
  3 35  1  0
  4 36  1  0
  4 37  1  0
  6 38  1  0
  9 39  1  0
 10 40  1  0
 12 41  1  0
 14 42  1  0
 15 43  1  0
 17 44  1  0
 20 45  1  0
 20 46  1  0
 22 47  1  0
 23 48  1  0
 29 49  1  0
 30 50  1  0
M  END
>  <vina_affinity>  (46) 
-8.591

$$$$
dec_C37435915
     RDKit          3D

 42 42  0  0  0  0  0  0  0  0999 V2000
    1.4170   30.0770    8.0370 C   0  0  0  0  0  0  0  0  0  0  0  0
    1.8080   28.8260    8.8240 C   0  0  0  0  0  0  0  0  0  0  0  0
    3.3100   28.5690    8.6710 C   0  0  0  0  0  0  0  0  0  0  0  0
    1.4500   28.9430   10.3200 C   0  0  0  0  0  0  0  0  0  0  0  0
    0.4670   27.8770   10.8380 C   0  0  1  0  0  0  0  0  0  0  0  0
    1.0810   26.7680   11.5860 N   0  0  0  0  0  0  0  0  0  0  0  0
    1.8710   25.8140   11.0210 C   0  0  0  0  0  0  0  0  0  0  0  0
    2.6050   25.1430   11.9510 N   0  0  0  0  0  0  0  0  0  0  0  0
    1.9400   25.5040    9.8430 O   0  0  0  0  0  0  0  0  0  0  0  0
   -0.6720   28.4860   11.7080 C   0  0  0  0  0  0  0  0  0  0  0  0
   -0.8120   28.1430   12.8900 O   0  0  0  0  0  0  0  0  0  0  0  0
   -1.5410   29.4070   11.1310 N   0  0  0  0  0  0  0  0  0  0  0  0
   -2.7530   28.8890   10.5030 C   0  0  0  0  0  0  0  0  0  0  0  0
   -3.7210   29.9890   10.0860 C   0  0  0  0  0  0  0  0  0  0  0  0
   -3.0540   30.9730    9.1260 C   0  0  0  0  0  0  0  0  0  0  0  0
   -1.5980   31.2680    9.5000 C   0  0  1  0  0  0  0  0  0  0  0  0
   -1.1840   32.7420    9.5170 C   0  0  0  0  0  0  0  0  0  0  0  0
   -0.3950   33.0730    8.5860 O   0  0  0  0  0  0  0  0  0  0  0  0
   -1.6450   33.4410   10.4600 O   0  0  0  0  0  0  0  0  0  0  0  0
   -1.2570   30.8390   10.9240 C   0  0  0  0  0  0  0  0  0  0  0  0
    1.1640   30.8866    8.7374 H   0  0  0  0  0  0  0  0  0  0  0  0
    2.2601   30.3902    7.4037 H   0  0  0  0  0  0  0  0  0  0  0  0
    0.5456   29.8543    7.4037 H   0  0  0  0  0  0  0  0  0  0  0  0
    1.2354   27.9822    8.4115 H   0  0  0  0  0  0  0  0  0  0  0  0
    3.7717   28.4900    9.6663 H   0  0  0  0  0  0  0  0  0  0  0  0
    3.4671   27.6309    8.1184 H   0  0  0  0  0  0  0  0  0  0  0  0
    3.7700   29.4015    8.1184 H   0  0  0  0  0  0  0  0  0  0  0  0
    2.3803   28.8607   10.9012 H   0  0  0  0  0  0  0  0  0  0  0  0
    0.9446   29.9125   10.4408 H   0  0  0  0  0  0  0  0  0  0  0  0
    0.0546   27.4573    9.9086 H   0  0  0  0  0  0  0  0  0  0  0  0
    1.3420   27.0130   12.5280 H   0  0  0  0  0  0  0  0  0  0  0  0
    3.0390   25.7250   12.6520 H   0  0  0  0  0  0  0  0  0  0  0  0
    3.2560   24.5080   11.5060 H   0  0  0  0  0  0  0  0  0  0  0  0
   -2.4674   28.3153    9.6090 H   0  0  0  0  0  0  0  0  0  0  0  0
   -3.2670   28.2609   11.2455 H   0  0  0  0  0  0  0  0  0  0  0  0
   -4.5895   29.5335    9.5877 H   0  0  0  0  0  0  0  0  0  0  0  0
   -4.0357   30.5375   10.9861 H   0  0  0  0  0  0  0  0  0  0  0  0
   -3.0776   30.5466    8.1123 H   0  0  0  0  0  0  0  0  0  0  0  0
   -3.6101   31.9205    9.1815 H   0  0  0  0  0  0  0  0  0  0  0  0
   -1.0794   30.7126    8.7046 H   0  0  0  0  0  0  0  0  0  0  0  0
   -0.1883   31.0233   11.1082 H   0  0  0  0  0  0  0  0  0  0  0  0
   -1.8765   31.4218   11.6216 H   0  0  0  0  0  0  0  0  0  0  0  0
  1  2  1  0
  2  3  1  0
  2  4  1  0
  4  5  1  0
  5  6  1  0
  6  7  1  0
  7  8  1  0
  7  9  2  0
  5 10  1  0
 10 11  2  0
 10 12  1  0
 12 13  1  0
 13 14  1  0
 14 15  1  0
 15 16  1  0
 16 17  1  0
 17 18  2  0
 17 19  1  0
 16 20  1  0
 20 12  1  0
  1 21  1  0
  1 22  1  0
  1 23  1  0
  2 24  1  0
  3 25  1  0
  3 26  1  0
  3 27  1  0
  4 28  1  0
  4 29  1  0
  5 30  1  6
  6 31  1  0
  8 32  1  0
  8 33  1  0
 13 34  1  0
 13 35  1  0
 14 36  1  0
 14 37  1  0
 15 38  1  0
 15 39  1  0
 16 40  1  6
 20 41  1  0
 20 42  1  0
M  CHG  1  19  -1
M  END
>  <vina_affinity>  (47) 
-6.851

$$$$
act_165978
     RDKit          3D

 49 52  0  0  0  0  0  0  0  0999 V2000
   -0.3950   22.4630   16.4610 N   0  0  0  0  0  0  0  0  0  0  0  0
   -1.7990   22.1970   15.5690 S   0  0  0  0  0  0  0  0  0  0  0  0
   -1.5320   21.1450   14.6190 O   0  0  0  0  0  0  0  0  0  0  0  0
   -2.8670   22.1190   16.5400 O   0  0  0  0  0  0  0  0  0  0  0  0
   -1.9500   23.7270   14.6860 C   0  0  0  0  0  0  0  0  0  0  0  0
   -3.0090   24.5900   14.9620 C   0  0  0  0  0  0  0  0  0  0  0  0
   -3.1140   25.7920   14.2550 C   0  0  0  0  0  0  0  0  0  0  0  0
   -2.1830   26.1390   13.2600 C   0  0  0  0  0  0  0  0  0  0  0  0
   -2.3220   27.3880   12.6240 N   0  0  0  0  0  0  0  0  0  0  0  0
   -1.4400   28.2120   12.0220 C   0  0  0  0  0  0  0  0  0  0  0  0
   -1.0810   28.2140   10.6540 C   0  0  0  0  0  0  0  0  0  0  0  0
   -0.1370   29.2110   10.5060 C   0  0  0  0  0  0  0  0  0  0  0  0
    0.6050   29.6850    9.3420 C   0  0  0  0  0  0  0  0  0  0  0  0
    0.1130   30.7540    8.5850 C   0  0  0  0  0  0  0  0  0  0  0  0
    0.8100   31.2010    7.4670 C   0  0  0  0  0  0  0  0  0  0  0  0
    2.0080   30.5830    7.1010 C   0  0  0  0  0  0  0  0  0  0  0  0
    2.5430   29.5170    7.8400 C   0  0  0  0  0  0  0  0  0  0  0  0
    3.7530   28.9430    7.4290 N   0  0  0  0  0  0  0  0  0  0  0  0
    3.7220   28.4510    6.0280 C   0  0  0  0  0  0  0  0  0  0  0  0
    4.9040   27.5060    5.7570 C   0  0  0  0  0  0  0  0  0  0  0  0
    4.9080   26.3480    6.6080 O   0  0  0  0  0  0  0  0  0  0  0  0
    4.4200   26.6130    7.9330 C   0  0  0  0  0  0  0  0  0  0  0  0
    4.5300   28.0880    8.3480 C   0  0  0  0  0  0  0  0  0  0  0  0
    1.8190   29.0830    8.9620 C   0  0  0  0  0  0  0  0  0  0  0  0
    0.0410   29.6980   11.7750 N   0  0  0  0  0  0  0  0  0  0  0  0
   -0.7220   29.1040   12.7050 N   0  0  0  0  0  0  0  0  0  0  0  0
   -1.1320   25.2510   13.0010 C   0  0  0  0  0  0  0  0  0  0  0  0
   -1.0150   24.0450   13.7010 C   0  0  0  0  0  0  0  0  0  0  0  0
    0.0590   21.5650   16.6350 H   0  0  0  0  0  0  0  0  0  0  0  0
   -0.5590   22.9800   17.3250 H   0  0  0  0  0  0  0  0  0  0  0  0
   -3.7542   24.3285   15.7277 H   0  0  0  0  0  0  0  0  0  0  0  0
   -3.9417   26.4800   14.4819 H   0  0  0  0  0  0  0  0  0  0  0  0
   -3.2890   27.6000   12.4010 H   0  0  0  0  0  0  0  0  0  0  0  0
   -1.4744   27.5543    9.8666 H   0  0  0  0  0  0  0  0  0  0  0  0
   -0.8287   31.2429    8.8750 H   0  0  0  0  0  0  0  0  0  0  0  0
    0.4184   32.0395    6.8724 H   0  0  0  0  0  0  0  0  0  0  0  0
    2.5457   30.9412    6.2107 H   0  0  0  0  0  0  0  0  0  0  0  0
    2.7801   27.9094    5.8564 H   0  0  0  0  0  0  0  0  0  0  0  0
    3.7960   29.3132    5.3489 H   0  0  0  0  0  0  0  0  0  0  0  0
    4.8513   27.1710    4.7106 H   0  0  0  0  0  0  0  0  0  0  0  0
    5.8267   28.0679    5.9643 H   0  0  0  0  0  0  0  0  0  0  0  0
    3.3615   26.3173    7.9788 H   0  0  0  0  0  0  0  0  0  0  0  0
    5.0474   26.0358    8.6281 H   0  0  0  0  0  0  0  0  0  0  0  0
    4.1400   28.2067    9.3697 H   0  0  0  0  0  0  0  0  0  0  0  0
    5.5867   28.3910    8.3079 H   0  0  0  0  0  0  0  0  0  0  0  0
    2.2120   28.2484    9.5612 H   0  0  0  0  0  0  0  0  0  0  0  0
    0.6870   30.4190   12.0750 H   0  0  0  0  0  0  0  0  0  0  0  0
   -0.3856   25.5057   12.2342 H   0  0  0  0  0  0  0  0  0  0  0  0
   -0.1908   23.3521   13.4759 H   0  0  0  0  0  0  0  0  0  0  0  0
  1  2  1  0
  2  3  2  0
  2  4  2  0
  2  5  1  0
  5  6  2  0
  6  7  1  0
  7  8  2  0
  8  9  1  0
  9 10  1  0
 10 11  1  0
 11 12  2  0
 12 13  1  0
 13 14  2  0
 14 15  1  0
 15 16  2  0
 16 17  1  0
 17 18  1  0
 18 19  1  0
 19 20  1  0
 20 21  1  0
 21 22  1  0
 22 23  1  0
 17 24  2  0
 12 25  1  0
 25 26  1  0
  8 27  1  0
 27 28  2  0
 28  5  1  0
 26 10  2  0
 24 13  1  0
 23 18  1  0
  1 29  1  0
  1 30  1  0
  6 31  1  0
  7 32  1  0
  9 33  1  0
 11 34  1  0
 14 35  1  0
 15 36  1  0
 16 37  1  0
 19 38  1  0
 19 39  1  0
 20 40  1  0
 20 41  1  0
 22 42  1  0
 22 43  1  0
 23 44  1  0
 23 45  1  0
 24 46  1  0
 25 47  1  0
 27 48  1  0
 28 49  1  0
M  END
>  <vina_affinity>  (48) 
-8.728

$$$$
act_300793
     RDKit          3D

 70 74  0  0  0  0  0  0  0  0999 V2000
   -1.5200   20.2120   13.5450 C   0  0  0  0  0  0  0  0  0  0  0  0
   -0.1090   20.5610   13.3070 N   0  0  0  0  0  0  0  0  0  0  0  0
    0.8150   19.9310   14.2650 C   0  0  0  0  0  0  0  0  0  0  0  0
    0.4000   20.6450   11.6840 S   0  0  0  0  0  0  0  0  0  0  0  0
    1.5060   19.7260   11.5090 O   0  0  0  0  0  0  0  0  0  0  0  0
   -0.7700   20.5740   10.8350 O   0  0  0  0  0  0  0  0  0  0  0  0
    1.0540   22.2960   11.5500 C   0  0  0  0  0  0  0  0  0  0  0  0
    0.6650   23.2730   12.4660 C   0  0  0  0  0  0  0  0  0  0  0  0
    1.1680   24.5710   12.3400 C   0  0  0  0  0  0  0  0  0  0  0  0
    2.0400   24.9190   11.2940 C   0  0  0  0  0  0  0  0  0  0  0  0
    2.5340   26.2370   11.2610 N   0  0  0  0  0  0  0  0  0  0  0  0
    2.4300   27.1950   10.2560 C   0  0  0  0  0  0  0  0  0  0  0  0
    3.3620   27.4870    9.3320 C   0  0  0  0  0  0  0  0  0  0  0  0
    3.0640   28.5740    8.3410 C   0  0  0  0  0  0  0  0  0  0  0  0
    3.9410   28.9010    7.3360 N   0  0  0  0  0  0  0  0  0  0  0  0
    4.8330   27.9680    6.6580 C   0  0  1  0  0  0  0  0  0  0  0  0
    4.4800   26.5270    7.0710 C   0  0  0  0  0  0  0  0  0  0  0  0
    4.8810   25.5270    5.9930 C   0  0  0  0  0  0  0  0  0  0  0  0
    4.1180   25.7740    4.6810 C   0  0  2  0  0  0  0  0  0  0  0  0
    4.9490   25.3100    3.5710 N   0  0  0  0  0  0  0  0  0  0  0  0
    3.7300   27.2490    4.4880 C   0  0  0  0  0  0  0  0  0  0  0  0
    4.7380   28.1930    5.1360 C   0  0  0  0  0  0  0  0  0  0  0  0
    1.9610   29.2840    8.3650 N   0  0  0  0  0  0  0  0  0  0  0  0
    1.0470   28.9960    9.3380 C   0  0  0  0  0  0  0  0  0  0  0  0
   -0.1810   29.5570    9.6320 C   0  0  0  0  0  0  0  0  0  0  0  0
   -0.8550   30.6880    8.9200 C   0  0  0  0  0  0  0  0  0  0  0  0
   -0.0990   32.0190    9.0760 C   0  0  0  0  0  0  0  0  0  0  0  0
   -1.1770   33.0680    9.3070 C   0  0  0  0  0  0  0  0  0  0  0  0
   -2.2270   32.3170   10.1070 C   0  0  0  0  0  0  0  0  0  0  0  0
   -2.2860   30.9600    9.4190 C   0  0  0  0  0  0  0  0  0  0  0  0
   -0.6370   28.8250   10.7500 C   0  0  0  0  0  0  0  0  0  0  0  0
    0.2120   27.8770   11.1450 N   0  0  0  0  0  0  0  0  0  0  0  0
    1.2550   27.9800   10.2690 N   0  0  0  0  0  0  0  0  0  0  0  0
    2.3990   23.9250   10.3750 C   0  0  0  0  0  0  0  0  0  0  0  0
    1.9030   22.6210   10.4910 C   0  0  0  0  0  0  0  0  0  0  0  0
   -1.7086   20.1654   14.6277 H   0  0  0  0  0  0  0  0  0  0  0  0
   -2.1683   20.9769   13.0925 H   0  0  0  0  0  0  0  0  0  0  0  0
   -1.7370   19.2331   13.0925 H   0  0  0  0  0  0  0  0  0  0  0  0
    0.4876   20.1542   15.2912 H   0  0  0  0  0  0  0  0  0  0  0  0
    0.8178   18.8420   14.1097 H   0  0  0  0  0  0  0  0  0  0  0  0
    1.8298   20.3262   14.1097 H   0  0  0  0  0  0  0  0  0  0  0  0
   -0.0314   23.0243   13.2803 H   0  0  0  0  0  0  0  0  0  0  0  0
    0.8754   25.3358   13.0745 H   0  0  0  0  0  0  0  0  0  0  0  0
    2.5470   26.6750   12.1890 H   0  0  0  0  0  0  0  0  0  0  0  0
    4.3179   26.9434    9.3031 H   0  0  0  0  0  0  0  0  0  0  0  0
    3.5220   29.5960    6.7220 H   0  0  0  0  0  0  0  0  0  0  0  0
    5.8786   28.1416    6.9524 H   0  0  0  0  0  0  0  0  0  0  0  0
    5.0106   26.2813    8.0027 H   0  0  0  0  0  0  0  0  0  0  0  0
    3.3912   26.4642    7.2145 H   0  0  0  0  0  0  0  0  0  0  0  0
    5.9601   25.6215    5.8018 H   0  0  0  0  0  0  0  0  0  0  0  0
    4.6329   24.5168    6.3508 H   0  0  0  0  0  0  0  0  0  0  0  0
    3.1723   25.2133    4.7176 H   0  0  0  0  0  0  0  0  0  0  0  0
    4.5110   25.5610    2.6840 H   0  0  0  0  0  0  0  0  0  0  0  0
    5.0010   24.2910    3.5810 H   0  0  0  0  0  0  0  0  0  0  0  0
    3.6817   27.4658    3.4107 H   0  0  0  0  0  0  0  0  0  0  0  0
    2.7543   27.4102    4.9696 H   0  0  0  0  0  0  0  0  0  0  0  0
    5.7275   28.0203    4.6876 H   0  0  0  0  0  0  0  0  0  0  0  0
    4.4014   29.2258    4.9624 H   0  0  0  0  0  0  0  0  0  0  0  0
   -0.8692   30.3552    7.8717 H   0  0  0  0  0  0  0  0  0  0  0  0
    0.5860   31.9746    9.9355 H   0  0  0  0  0  0  0  0  0  0  0  0
    0.5141   32.2486    8.1921 H   0  0  0  0  0  0  0  0  0  0  0  0
   -0.7814   33.9208    9.8781 H   0  0  0  0  0  0  0  0  0  0  0  0
   -1.5705   33.4948    8.3727 H   0  0  0  0  0  0  0  0  0  0  0  0
   -1.9215   32.2129   11.1586 H   0  0  0  0  0  0  0  0  0  0  0  0
   -3.1994   32.8306   10.1307 H   0  0  0  0  0  0  0  0  0  0  0  0
   -2.5993   30.1818   10.1305 H   0  0  0  0  0  0  0  0  0  0  0  0
   -3.0137   30.9524    8.5941 H   0  0  0  0  0  0  0  0  0  0  0  0
   -1.5993   29.0185   11.2465 H   0  0  0  0  0  0  0  0  0  0  0  0
    3.0816   24.1729    9.5488 H   0  0  0  0  0  0  0  0  0  0  0  0
    2.1811   21.8561    9.7510 H   0  0  0  0  0  0  0  0  0  0  0  0
  1  2  1  0
  2  3  1  0
  2  4  1  0
  4  5  2  0
  4  6  2  0
  4  7  1  0
  7  8  2  0
  8  9  1  0
  9 10  2  0
 10 11  1  0
 11 12  1  0
 12 13  2  0
 13 14  1  0
 14 15  1  0
 15 16  1  0
 16 17  1  0
 17 18  1  0
 18 19  1  0
 19 20  1  0
 19 21  1  0
 21 22  1  0
 14 23  2  0
 23 24  1  0
 24 25  2  0
 25 26  1  0
 26 27  1  0
 27 28  1  0
 28 29  1  0
 29 30  1  0
 25 31  1  0
 31 32  2  0
 32 33  1  0
 10 34  1  0
 34 35  2  0
 35  7  1  0
 33 12  1  0
 22 16  1  0
 33 24  1  0
 30 26  1  0
  1 36  1  0
  1 37  1  0
  1 38  1  0
  3 39  1  0
  3 40  1  0
  3 41  1  0
  8 42  1  0
  9 43  1  0
 11 44  1  0
 13 45  1  0
 15 46  1  0
 16 47  1  1
 17 48  1  0
 17 49  1  0
 18 50  1  0
 18 51  1  0
 19 52  1  1
 20 53  1  0
 20 54  1  0
 21 55  1  0
 21 56  1  0
 22 57  1  0
 22 58  1  0
 26 59  1  0
 27 60  1  0
 27 61  1  0
 28 62  1  0
 28 63  1  0
 29 64  1  0
 29 65  1  0
 30 66  1  0
 30 67  1  0
 31 68  1  0
 34 69  1  0
 35 70  1  0
M  END
>  <vina_affinity>  (49) 
-9.787

$$$$
dec_C36142454
     RDKit          3D

 36 37  0  0  0  0  0  0  0  0999 V2000
   -1.5200   25.5620   10.1220 C   0  0  0  0  0  0  0  0  0  0  0  0
   -0.7830   26.7640    9.8880 O   0  0  0  0  0  0  0  0  0  0  0  0
   -0.4370   27.4350   11.0320 C   0  0  0  0  0  0  0  0  0  0  0  0
   -0.1310   26.8870   12.0830 O   0  0  0  0  0  0  0  0  0  0  0  0
   -0.4510   28.9800   10.7810 C   0  0  2  0  0  0  0  0  0  0  0  0
    0.0060   29.6950   12.0050 N   0  0  0  0  0  0  0  0  0  0  0  0
   -1.9170   29.3420   10.4890 C   0  0  0  0  0  0  0  0  0  0  0  0
   -2.0740   30.6620    9.7250 C   0  0  0  0  0  0  0  0  0  0  0  0
   -1.6680   31.9110   10.5220 C   0  0  0  0  0  0  0  0  0  0  0  0
   -3.5520   30.8180    9.3270 C   0  0  0  0  0  0  0  0  0  0  0  0
   -1.3450   30.6230    8.4880 O   0  0  0  0  0  0  0  0  0  0  0  0
   -0.0680   30.1390    8.5500 C   0  0  0  0  0  0  0  0  0  0  0  0
    0.7340   30.4580    7.4480 C   0  0  0  0  0  0  0  0  0  0  0  0
    2.0630   30.0420    7.3920 C   0  0  0  0  0  0  0  0  0  0  0  0
    2.5860   29.2980    8.4520 C   0  0  0  0  0  0  0  0  0  0  0  0
    3.9880   28.8620    8.4140 N   0  0  0  0  0  0  0  0  0  0  0  0
    4.8550   29.7230    8.2110 O   0  0  0  0  0  0  0  0  0  0  0  0
    4.2210   27.6580    8.5960 O   0  0  0  0  0  0  0  0  0  0  0  0
    1.7830   28.9600    9.5520 C   0  0  0  0  0  0  0  0  0  0  0  0
    0.4330   29.3680    9.6060 C   0  0  0  0  0  0  0  0  0  0  0  0
   -1.6203   25.3984   11.2051 H   0  0  0  0  0  0  0  0  0  0  0  0
   -2.5191   25.6507    9.6705 H   0  0  0  0  0  0  0  0  0  0  0  0
   -0.9878   24.7118    9.6705 H   0  0  0  0  0  0  0  0  0  0  0  0
    0.5280   29.0270   12.5780 H   0  0  0  0  0  0  0  0  0  0  0  0
    0.6900   30.4020   11.7410 H   0  0  0  0  0  0  0  0  0  0  0  0
   -2.3630   28.5356    9.8884 H   0  0  0  0  0  0  0  0  0  0  0  0
   -2.4223   29.4640   11.4584 H   0  0  0  0  0  0  0  0  0  0  0  0
   -1.7374   31.6974   11.5988 H   0  0  0  0  0  0  0  0  0  0  0  0
   -0.6338   32.1873   10.2689 H   0  0  0  0  0  0  0  0  0  0  0  0
   -2.3421   32.7426   10.2689 H   0  0  0  0  0  0  0  0  0  0  0  0
   -4.1710   30.8833   10.2339 H   0  0  0  0  0  0  0  0  0  0  0  0
   -3.6766   31.7343    8.7313 H   0  0  0  0  0  0  0  0  0  0  0  0
   -3.8651   29.9479    8.7313 H   0  0  0  0  0  0  0  0  0  0  0  0
    0.3111   31.0429    6.6179 H   0  0  0  0  0  0  0  0  0  0  0  0
    2.6910   30.2960    6.5254 H   0  0  0  0  0  0  0  0  0  0  0  0
    2.2090   28.3725   10.3786 H   0  0  0  0  0  0  0  0  0  0  0  0
  1  2  1  0
  2  3  1  0
  3  4  2  0
  3  5  1  0
  5  6  1  1
  5  7  1  0
  7  8  1  0
  8  9  1  0
  8 10  1  0
  8 11  1  0
 11 12  1  0
 12 13  2  0
 13 14  1  0
 14 15  2  0
 15 16  1  0
 16 17  2  0
 16 18  1  0
 15 19  1  0
 19 20  2  0
 20  5  1  0
 20 12  1  0
  1 21  1  0
  1 22  1  0
  1 23  1  0
  6 24  1  0
  6 25  1  0
  7 26  1  0
  7 27  1  0
  9 28  1  0
  9 29  1  0
  9 30  1  0
 10 31  1  0
 10 32  1  0
 10 33  1  0
 13 34  1  0
 14 35  1  0
 19 36  1  0
M  CHG  2  16   1  18  -1
M  END
>  <vina_affinity>  (50) 
-7.717

$$$$
dec_C12340209
     RDKit          3D

 50 52  0  0  0  0  0  0  0  0999 V2000
   -1.1500   27.6300   14.9470 O   0  0  0  0  0  0  0  0  0  0  0  0
   -0.8670   26.7280   14.1560 C   0  0  0  0  0  0  0  0  0  0  0  0
   -0.9900   25.2870   14.5920 C   0  0  0  0  0  0  0  0  0  0  0  0
   -2.4220   24.7890   14.3700 C   0  0  2  0  0  0  0  0  0  0  0  0
   -3.4100   25.9370   14.4540 N   0  0  0  0  0  0  0  0  0  0  0  0
   -4.8080   25.4560   14.2550 C   0  0  0  0  0  0  0  0  0  0  0  0
   -5.1400   24.4710   15.3770 C   0  0  0  0  0  0  0  0  0  0  0  0
   -4.1230   23.4320   15.6020 N   0  0  0  0  0  0  0  0  0  0  0  0
   -4.4900   22.3380   16.5140 C   0  0  0  0  0  0  0  0  0  0  0  0
   -5.7030   22.6740   17.3470 C   0  0  0  0  0  0  0  0  0  0  0  0
   -6.9790   22.2400   16.9550 C   0  0  0  0  0  0  0  0  0  0  0  0
   -8.0970   22.5290   17.7390 C   0  0  0  0  0  0  0  0  0  0  0  0
   -7.9540   23.2520   18.9200 C   0  0  0  0  0  0  0  0  0  0  0  0
   -6.6930   23.6950   19.3170 C   0  0  0  0  0  0  0  0  0  0  0  0
   -5.5730   23.4090   18.5350 C   0  0  0  0  0  0  0  0  0  0  0  0
   -2.7680   23.6370   15.3360 C   0  0  0  0  0  0  0  0  0  0  0  0
   -1.8810   22.9040   15.7710 O   0  0  0  0  0  0  0  0  0  0  0  0
   -0.3710   26.8800   12.8710 N   0  0  0  0  0  0  0  0  0  0  0  0
   -0.3650   28.0780   12.2050 N   0  0  0  0  0  0  0  0  0  0  0  0
   -0.2610   28.0550   10.9110 C   0  0  0  0  0  0  0  0  0  0  0  0
   -0.1960   29.3070   10.1230 C   0  0  0  0  0  0  0  0  0  0  0  0
    0.6220   29.3100    8.9880 C   0  0  0  0  0  0  0  0  0  0  0  0
    0.7240   30.4680    8.2170 C   0  0  0  0  0  0  0  0  0  0  0  0
    1.7340   30.4680    6.8250 Cl  0  0  0  0  0  0  0  0  0  0  0  0
    0.0210   31.6190    8.5610 C   0  0  0  0  0  0  0  0  0  0  0  0
   -0.7940   31.6150    9.6940 C   0  0  0  0  0  0  0  0  0  0  0  0
   -1.6470   33.0630   10.0920 Cl  0  0  0  0  0  0  0  0  0  0  0  0
   -0.9090   30.4620   10.4800 C   0  0  0  0  0  0  0  0  0  0  0  0
   -1.7180   30.4980   11.5860 O   0  0  0  0  0  0  0  0  0  0  0  0
   -0.2949   24.6688   14.0049 H   0  0  0  0  0  0  0  0  0  0  0  0
   -0.7453   25.2129   15.6619 H   0  0  0  0  0  0  0  0  0  0  0  0
   -2.4946   24.3766   13.3528 H   0  0  0  0  0  0  0  0  0  0  0  0
   -3.3190   26.4250   15.3540 H   0  0  0  0  0  0  0  0  0  0  0  0
   -3.1460   26.6250   13.7180 H   0  0  0  0  0  0  0  0  0  0  0  0
   -5.5031   26.3078   14.2898 H   0  0  0  0  0  0  0  0  0  0  0  0
   -4.9040   24.9629   13.2764 H   0  0  0  0  0  0  0  0  0  0  0  0
   -5.2596   25.0415   16.3099 H   0  0  0  0  0  0  0  0  0  0  0  0
   -6.0574   23.9474   15.0702 H   0  0  0  0  0  0  0  0  0  0  0  0
   -4.7066   21.4384   15.9192 H   0  0  0  0  0  0  0  0  0  0  0  0
   -3.6454   22.1709   17.1987 H   0  0  0  0  0  0  0  0  0  0  0  0
   -7.0987   21.6679   16.0231 H   0  0  0  0  0  0  0  0  0  0  0  0
   -9.0929   22.1849   17.4231 H   0  0  0  0  0  0  0  0  0  0  0  0
   -8.8354   23.4737   19.5397 H   0  0  0  0  0  0  0  0  0  0  0  0
   -6.5808   24.2706   20.2476 H   0  0  0  0  0  0  0  0  0  0  0  0
   -4.5809   23.7625   18.8524 H   0  0  0  0  0  0  0  0  0  0  0  0
   -0.4300   26.0830   12.2370 H   0  0  0  0  0  0  0  0  0  0  0  0
   -0.2204   27.0870   10.3901 H   0  0  0  0  0  0  0  0  0  0  0  0
    1.1808   28.4056    8.7056 H   0  0  0  0  0  0  0  0  0  0  0  0
    0.1072   32.5256    7.9441 H   0  0  0  0  0  0  0  0  0  0  0  0
   -2.5900   30.1180   11.3500 H   0  0  0  0  0  0  0  0  0  0  0  0
  1  2  2  0
  2  3  1  0
  3  4  1  0
  4  5  1  0
  5  6  1  0
  6  7  1  0
  7  8  1  0
  8  9  1  0
  9 10  1  0
 10 11  2  0
 11 12  1  0
 12 13  2  0
 13 14  1  0
 14 15  2  0
  8 16  1  0
 16 17  2  0
  2 18  1  0
 18 19  1  0
 19 20  2  3
 20 21  1  0
 21 22  2  0
 22 23  1  0
 23 24  1  0
 23 25  2  0
 25 26  1  0
 26 27  1  0
 26 28  2  0
 28 29  1  0
 16  4  1  0
 28 21  1  0
 15 10  1  0
  3 30  1  0
  3 31  1  0
  4 32  1  6
  5 33  1  0
  5 34  1  0
  6 35  1  0
  6 36  1  0
  7 37  1  0
  7 38  1  0
  9 39  1  0
  9 40  1  0
 11 41  1  0
 12 42  1  0
 13 43  1  0
 14 44  1  0
 15 45  1  0
 18 46  1  0
 20 47  1  0
 22 48  1  0
 25 49  1  0
 29 50  1  0
M  CHG  1   5   1
M  END
>  <vina_affinity>  (51) 
-8.712

$$$$
dec_C03521280
     RDKit          3D

 47 49  0  0  0  0  0  0  0  0999 V2000
    6.3060   26.3190    7.3150 C   0  0  0  0  0  0  0  0  0  0  0  0
    5.0670   26.9750    7.8450 C   0  0  0  0  0  0  0  0  0  0  0  0
    4.8550   28.3420    7.6600 C   0  0  0  0  0  0  0  0  0  0  0  0
    3.7130   28.9590    8.1840 C   0  0  0  0  0  0  0  0  0  0  0  0
    2.7510   28.2360    8.9120 C   0  0  0  0  0  0  0  0  0  0  0  0
    1.5480   28.9090    9.4470 C   0  0  0  0  0  0  0  0  0  0  0  0
    0.8040   28.4050   10.5010 C   0  0  0  0  0  0  0  0  0  0  0  0
   -0.3190   29.1170   10.9360 C   0  0  0  0  0  0  0  0  0  0  0  0
   -1.1110   28.5410   12.0480 C   0  0  0  0  0  0  0  0  0  0  0  0
   -1.1130   28.9470   13.1990 O   0  0  0  0  0  0  0  0  0  0  0  0
   -1.8340   27.4940   11.5870 O   0  0  0  0  0  0  0  0  0  0  0  0
   -1.1590   26.2250   11.5550 C   0  0  2  0  0  0  0  0  0  0  0  0
   -1.5190   25.5690   10.2280 C   0  0  0  0  0  0  0  0  0  0  0  0
   -1.5710   25.3150   12.7290 C   0  0  0  0  0  0  0  0  0  0  0  0
   -1.3640   24.1030   12.7390 O   0  0  0  0  0  0  0  0  0  0  0  0
   -2.2740   25.9560   13.7230 N   0  0  0  0  0  0  0  0  0  0  0  0
   -1.5720   26.3030   14.8370 C   0  0  0  0  0  0  0  0  0  0  0  0
   -2.3050   27.0680   15.6920 N   0  0  0  0  0  0  0  0  0  0  0  0
   -0.4110   26.0190   15.0910 O   0  0  0  0  0  0  0  0  0  0  0  0
   -0.6980   30.3260   10.3120 C   0  0  0  0  0  0  0  0  0  0  0  0
   -1.8070   31.1330   10.6820 C   0  0  0  0  0  0  0  0  0  0  0  0
   -2.0980   32.3170   10.0030 C   0  0  0  0  0  0  0  0  0  0  0  0
   -1.2880   32.7160    8.9510 C   0  0  0  0  0  0  0  0  0  0  0  0
   -0.1940   31.9300    8.5870 C   0  0  0  0  0  0  0  0  0  0  0  0
    0.1170   30.7480    9.2460 C   0  0  0  0  0  0  0  0  0  0  0  0
    1.1930   30.0620    8.8320 N   0  0  0  0  0  0  0  0  0  0  0  0
    2.9960   26.8650    9.1080 C   0  0  0  0  0  0  0  0  0  0  0  0
    4.1370   26.2440    8.5860 C   0  0  0  0  0  0  0  0  0  0  0  0
    6.9332   25.9869    8.1554 H   0  0  0  0  0  0  0  0  0  0  0  0
    6.0268   25.4506    6.7003 H   0  0  0  0  0  0  0  0  0  0  0  0
    6.8673   27.0381    6.7003 H   0  0  0  0  0  0  0  0  0  0  0  0
    5.5898   28.9382    7.0990 H   0  0  0  0  0  0  0  0  0  0  0  0
    3.5642   30.0368    8.0223 H   0  0  0  0  0  0  0  0  0  0  0  0
    1.0911   27.4612   10.9876 H   0  0  0  0  0  0  0  0  0  0  0  0
   -0.0742   26.3792   11.6522 H   0  0  0  0  0  0  0  0  0  0  0  0
   -2.0403   24.6192   10.4180 H   0  0  0  0  0  0  0  0  0  0  0  0
   -2.1757   26.2392    9.6539 H   0  0  0  0  0  0  0  0  0  0  0  0
   -0.6010   25.3750    9.6539 H   0  0  0  0  0  0  0  0  0  0  0  0
   -2.7960   26.7680   13.4000 H   0  0  0  0  0  0  0  0  0  0  0  0
   -3.2820   26.8200   15.7860 H   0  0  0  0  0  0  0  0  0  0  0  0
   -1.8360   27.2230   16.5780 H   0  0  0  0  0  0  0  0  0  0  0  0
   -2.4480   30.8189   11.5189 H   0  0  0  0  0  0  0  0  0  0  0  0
   -2.9628   32.9285   10.3000 H   0  0  0  0  0  0  0  0  0  0  0  0
   -1.5064   33.6465    8.4066 H   0  0  0  0  0  0  0  0  0  0  0  0
    0.4423   32.2571    7.7515 H   0  0  0  0  0  0  0  0  0  0  0  0
    2.2748   26.2671    9.6845 H   0  0  0  0  0  0  0  0  0  0  0  0
    4.3020   25.1707    8.7613 H   0  0  0  0  0  0  0  0  0  0  0  0
  1  2  1  0
  2  3  2  0
  3  4  1  0
  4  5  2  0
  5  6  1  0
  6  7  2  0
  7  8  1  0
  8  9  1  0
  9 10  2  0
  9 11  1  0
 11 12  1  0
 12 13  1  0
 12 14  1  0
 14 15  2  0
 14 16  1  0
 16 17  1  0
 17 18  1  0
 17 19  2  0
  8 20  2  0
 20 21  1  0
 21 22  2  0
 22 23  1  0
 23 24  2  0
 24 25  1  0
 25 26  2  0
  5 27  1  0
 27 28  2  0
 28  2  1  0
 26  6  1  0
 25 20  1  0
  1 29  1  0
  1 30  1  0
  1 31  1  0
  3 32  1  0
  4 33  1  0
  7 34  1  0
 12 35  1  6
 13 36  1  0
 13 37  1  0
 13 38  1  0
 16 39  1  0
 18 40  1  0
 18 41  1  0
 21 42  1  0
 22 43  1  0
 23 44  1  0
 24 45  1  0
 27 46  1  0
 28 47  1  0
M  END
>  <vina_affinity>  (52) 
-9.136

$$$$
act_562222
     RDKit          3D

 48 53  0  0  0  0  0  0  0  0999 V2000
   -0.9410   30.4410   10.7850 Cl  0  0  0  0  0  0  0  0  0  0  0  0
   -1.4090   29.0240   11.6400 C   0  0  0  0  0  0  0  0  0  0  0  0
   -2.5500   28.3280   11.2540 C   0  0  0  0  0  0  0  0  0  0  0  0
   -2.9200   27.1720   11.9450 C   0  0  0  0  0  0  0  0  0  0  0  0
   -2.1530   26.7080   13.0190 C   0  0  0  0  0  0  0  0  0  0  0  0
   -2.6150   25.5540   13.5860 O   0  0  0  0  0  0  0  0  0  0  0  0
   -2.9760   25.6010   14.9650 C   0  0  0  0  0  0  0  0  0  0  0  0
   -3.8710   24.4480   15.2100 C   0  0  0  0  0  0  0  0  0  0  0  0
   -5.1920   24.3730   15.0880 N   0  0  0  0  0  0  0  0  0  0  0  0
   -5.6070   23.1190   15.5370 N   0  0  0  0  0  0  0  0  0  0  0  0
   -4.5220   22.5010   15.9000 C   0  0  0  0  0  0  0  0  0  0  0  0
   -4.0920   21.0150   16.6240 S   0  0  0  0  0  0  0  0  0  0  0  0
   -2.4230   21.6290   16.6040 C   0  0  0  0  0  0  0  0  0  0  0  0
   -1.1840   20.6490   17.3400 S   0  0  0  0  0  0  0  0  0  0  0  0
   -0.8630   19.1640   15.9350 S   0  0  0  0  0  0  0  0  0  0  0  0
    0.2710   19.9060   14.8360 C   0  0  0  0  0  0  0  0  0  0  0  0
   -0.0650   20.7040   13.8600 N   0  0  0  0  0  0  0  0  0  0  0  0
    1.0850   20.9270   13.1820 N   0  0  0  0  0  0  0  0  0  0  0  0
    1.3800   21.5580   12.0090 C   0  0  0  0  0  0  0  0  0  0  0  0
    0.3520   22.2100   11.1690 C   0  0  0  0  0  0  0  0  0  0  0  0
    0.0010   23.4260   11.8320 O   0  0  0  0  0  0  0  0  0  0  0  0
    0.5030   24.5860   11.3090 C   0  0  0  0  0  0  0  0  0  0  0  0
   -0.3010   25.1820   10.3320 C   0  0  0  0  0  0  0  0  0  0  0  0
    0.0770   26.3850    9.7300 C   0  0  0  0  0  0  0  0  0  0  0  0
    1.2710   26.9930   10.1030 C   0  0  0  0  0  0  0  0  0  0  0  0
    1.7460   28.4740    9.3700 Cl  0  0  0  0  0  0  0  0  0  0  0  0
    2.0870   26.4040   11.0660 C   0  0  0  0  0  0  0  0  0  0  0  0
    1.7040   25.2000   11.6700 C   0  0  0  0  0  0  0  0  0  0  0  0
    2.6850   21.4390   11.7870 N   0  0  0  0  0  0  0  0  0  0  0  0
    3.2410   20.6870   12.8220 N   0  0  0  0  0  0  0  0  0  0  0  0
    2.2500   20.3970   13.6150 C   0  0  0  0  0  0  0  0  0  0  0  0
    1.9900   19.4880   15.0340 S   0  0  0  0  0  0  0  0  0  0  0  0
   -2.2040   22.8060   16.0850 N   0  0  0  0  0  0  0  0  0  0  0  0
   -3.4220   23.2620   15.7110 N   0  0  0  0  0  0  0  0  0  0  0  0
   -1.0200   27.4220   13.4110 C   0  0  0  0  0  0  0  0  0  0  0  0
   -0.6450   28.5780   12.7150 C   0  0  0  0  0  0  0  0  0  0  0  0
   -3.1572   28.6860   10.4095 H   0  0  0  0  0  0  0  0  0  0  0  0
   -3.8228   26.6214   11.6420 H   0  0  0  0  0  0  0  0  0  0  0  0
   -2.0775   25.5240   15.5949 H   0  0  0  0  0  0  0  0  0  0  0  0
   -3.4762   26.5493   15.2109 H   0  0  0  0  0  0  0  0  0  0  0  0
    0.7578   22.4251   10.1695 H   0  0  0  0  0  0  0  0  0  0  0  0
   -0.5257   21.5603   11.0367 H   0  0  0  0  0  0  0  0  0  0  0  0
   -1.2426   24.6977   10.0338 H   0  0  0  0  0  0  0  0  0  0  0  0
   -0.5653   26.8480    8.9664 H   0  0  0  0  0  0  0  0  0  0  0  0
    3.0337   26.8853   11.3525 H   0  0  0  0  0  0  0  0  0  0  0  0
    2.3504   24.7371   12.4302 H   0  0  0  0  0  0  0  0  0  0  0  0
   -0.4213   27.0768   14.2668 H   0  0  0  0  0  0  0  0  0  0  0  0
    0.2543   29.1343   13.0181 H   0  0  0  0  0  0  0  0  0  0  0  0
  1  2  1  0
  2  3  2  0
  3  4  1  0
  4  5  2  0
  5  6  1  0
  6  7  1  0
  7  8  1  0
  8  9  2  0
  9 10  1  0
 10 11  2  0
 11 12  1  0
 12 13  1  0
 13 14  1  0
 14 15  1  0
 15 16  1  0
 16 17  2  0
 17 18  1  0
 18 19  1  0
 19 20  1  0
 20 21  1  0
 21 22  1  0
 22 23  2  0
 23 24  1  0
 24 25  2  0
 25 26  1  0
 25 27  1  0
 27 28  2  0
 19 29  2  0
 29 30  1  0
 30 31  2  0
 31 32  1  0
 13 33  2  0
 33 34  1  0
  5 35  1  0
 35 36  2  0
 36  2  1  0
 34  8  1  0
 34 11  1  0
 32 16  1  0
 31 18  1  0
 28 22  1  0
  3 37  1  0
  4 38  1  0
  7 39  1  0
  7 40  1  0
 20 41  1  0
 20 42  1  0
 23 43  1  0
 24 44  1  0
 27 45  1  0
 28 46  1  0
 35 47  1  0
 36 48  1  0
M  END
>  <vina_affinity>  (53) 
-7.497

$$$$
dec_C37295503
     RDKit          3D

 43 44  0  0  0  0  0  0  0  0999 V2000
    1.4800   31.7350    7.0860 C   0  0  0  0  0  0  0  0  0  0  0  0
    0.9380   30.7160    8.0430 C   0  0  0  0  0  0  0  0  0  0  0  0
    1.7520   29.6960    8.5330 C   0  0  0  0  0  0  0  0  0  0  0  0
    1.2500   28.7790    9.4580 C   0  0  0  0  0  0  0  0  0  0  0  0
   -0.0700   28.8630    9.9380 C   0  0  0  0  0  0  0  0  0  0  0  0
   -0.5170   27.9140   10.9010 N   0  0  0  0  0  0  0  0  0  0  0  0
   -0.5880   28.1700   12.2700 C   0  0  0  0  0  0  0  0  0  0  0  0
   -0.6780   29.2190   12.8920 O   0  0  0  0  0  0  0  0  0  0  0  0
   -0.3950   26.8480   12.9710 C   0  0  0  0  0  0  0  0  0  0  0  0
   -0.4360   26.7970   14.3460 N   0  0  0  0  0  0  0  0  0  0  0  0
   -0.1190   25.9510   11.9980 C   0  0  0  0  0  0  0  0  0  0  0  0
    0.3070   24.4890   12.2270 C   0  0  0  0  0  0  0  0  0  0  0  0
   -0.0730   23.5200   11.0850 C   0  0  0  0  0  0  0  0  0  0  0  0
   -0.3240   23.9310   13.5190 C   0  0  0  0  0  0  0  0  0  0  0  0
    1.8490   24.4180   12.3360 C   0  0  0  0  0  0  0  0  0  0  0  0
   -0.2330   26.5250   10.7110 N   0  0  0  0  0  0  0  0  0  0  0  0
   -1.1440   25.9360    9.7110 C   0  0  0  0  0  0  0  0  0  0  0  0
   -0.9100   29.8700    9.4200 C   0  0  0  0  0  0  0  0  0  0  0  0
   -2.3680   30.0070    9.7670 C   0  0  0  0  0  0  0  0  0  0  0  0
   -0.3820   30.8010    8.5000 C   0  0  0  0  0  0  0  0  0  0  0  0
    1.9234   32.5686    7.6503 H   0  0  0  0  0  0  0  0  0  0  0  0
    2.2501   31.2702    6.4528 H   0  0  0  0  0  0  0  0  0  0  0  0
    0.6642   32.1138    6.4528 H   0  0  0  0  0  0  0  0  0  0  0  0
    2.7937   29.6134    8.1895 H   0  0  0  0  0  0  0  0  0  0  0  0
    1.9023   27.9709    9.8206 H   0  0  0  0  0  0  0  0  0  0  0  0
   -0.1540   25.8690   14.6720 H   0  0  0  0  0  0  0  0  0  0  0  0
   -1.3190   27.0940   14.7430 H   0  0  0  0  0  0  0  0  0  0  0  0
   -0.4430   22.5765   11.5126 H   0  0  0  0  0  0  0  0  0  0  0  0
   -0.8594   23.9748   10.4647 H   0  0  0  0  0  0  0  0  0  0  0  0
    0.8129   23.3189   10.4647 H   0  0  0  0  0  0  0  0  0  0  0  0
    0.1768   24.3739   14.3926 H   0  0  0  0  0  0  0  0  0  0  0  0
   -1.3944   24.1834   13.5430 H   0  0  0  0  0  0  0  0  0  0  0  0
   -0.2044   22.8378   13.5430 H   0  0  0  0  0  0  0  0  0  0  0  0
    2.1414   24.4045   13.3963 H   0  0  0  0  0  0  0  0  0  0  0  0
    2.2095   23.5023   11.8446 H   0  0  0  0  0  0  0  0  0  0  0  0
    2.2922   25.2967   11.8446 H   0  0  0  0  0  0  0  0  0  0  0  0
   -1.9607   25.4080   10.2250 H   0  0  0  0  0  0  0  0  0  0  0  0
   -1.5629   26.7347    9.0812 H   0  0  0  0  0  0  0  0  0  0  0  0
   -0.5876   25.2262    9.0812 H   0  0  0  0  0  0  0  0  0  0  0  0
   -2.4851   30.0180   10.8607 H   0  0  0  0  0  0  0  0  0  0  0  0
   -2.7582   30.9458    9.3470 H   0  0  0  0  0  0  0  0  0  0  0  0
   -2.9263   29.1574    9.3470 H   0  0  0  0  0  0  0  0  0  0  0  0
   -1.0247   31.6146    8.1326 H   0  0  0  0  0  0  0  0  0  0  0  0
  1  2  1  0
  2  3  2  0
  3  4  1  0
  4  5  2  0
  5  6  1  0
  6  7  1  0
  7  8  2  0
  7  9  1  0
  9 10  1  0
  9 11  2  0
 11 12  1  0
 12 13  1  0
 12 14  1  0
 12 15  1  0
 11 16  1  0
 16 17  1  0
  5 18  1  0
 18 19  1  0
 18 20  2  0
 20  2  1  0
 16  6  1  0
  1 21  1  0
  1 22  1  0
  1 23  1  0
  3 24  1  0
  4 25  1  0
 10 26  1  0
 10 27  1  0
 13 28  1  0
 13 29  1  0
 13 30  1  0
 14 31  1  0
 14 32  1  0
 14 33  1  0
 15 34  1  0
 15 35  1  0
 15 36  1  0
 17 37  1  0
 17 38  1  0
 17 39  1  0
 19 40  1  0
 19 41  1  0
 19 42  1  0
 20 43  1  0
M  END
>  <vina_affinity>  (54) 
-7.482

$$$$
dec_C36499554
     RDKit          3D

 55 58  0  0  0  0  0  0  0  0999 V2000
    1.8060   30.8920    6.9940 C   0  0  0  0  0  0  0  0  0  0  0  0
    1.0850   30.1540    8.0840 C   0  0  0  0  0  0  0  0  0  0  0  0
   -0.2940   30.3310    8.2640 C   0  0  0  0  0  0  0  0  0  0  0  0
   -0.9640   29.6690    9.2920 C   0  0  0  0  0  0  0  0  0  0  0  0
   -0.2460   28.8410   10.1580 C   0  0  0  0  0  0  0  0  0  0  0  0
   -1.1090   28.0000   11.4610 S   0  0  0  0  0  0  0  0  0  0  0  0
   -2.5220   28.3080   11.3340 O   0  0  0  0  0  0  0  0  0  0  0  0
   -0.4200   28.2990   12.7060 O   0  0  0  0  0  0  0  0  0  0  0  0
   -0.8900   26.2420   11.0600 C   0  0  0  0  0  0  0  0  0  0  0  0
   -1.6910   25.3120   11.8560 N   0  0  0  0  0  0  0  0  0  0  0  0
   -1.0890   24.7240   12.9580 C   0  0  0  0  0  0  0  0  0  0  0  0
    0.1330   24.7370   13.1010 O   0  0  0  0  0  0  0  0  0  0  0  0
   -2.0620   24.0380   13.9490 C   0  0  1  0  0  0  0  0  0  0  0  0
   -1.4840   22.8230   14.6730 C   0  0  0  0  0  0  0  0  0  0  0  0
   -1.1410   21.6810   13.9020 C   0  0  0  0  0  0  0  0  0  0  0  0
   -0.6120   20.5320   14.4980 C   0  0  0  0  0  0  0  0  0  0  0  0
   -0.4390   20.5430   15.8640 C   0  0  0  0  0  0  0  0  0  0  0  0
   -0.7740   21.6370   16.6250 C   0  0  0  0  0  0  0  0  0  0  0  0
   -1.2990   22.7860   16.0670 C   0  0  0  0  0  0  0  0  0  0  0  0
   -0.5320   21.4410   17.9490 O   0  0  0  0  0  0  0  0  0  0  0  0
   -0.0190   20.0920   17.9340 C   0  0  0  0  0  0  0  0  0  0  0  0
    0.0570   19.5220   16.6110 O   0  0  0  0  0  0  0  0  0  0  0  0
   -2.6620   25.0240   14.8650 N   0  0  0  0  0  0  0  0  0  0  0  0
   -1.9560   26.1730   15.1930 C   0  0  0  0  0  0  0  0  0  0  0  0
   -2.2710   26.9800   16.0590 O   0  0  0  0  0  0  0  0  0  0  0  0
   -4.1200   25.1370   14.9250 C   0  0  0  0  0  0  0  0  0  0  0  0
   -4.7280   24.1740   15.8790 C   0  0  0  0  0  0  0  0  0  0  0  0
   -5.4170   22.9900   15.7090 C   0  0  0  0  0  0  0  0  0  0  0  0
   -5.7450   22.5260   17.0050 C   0  0  0  0  0  0  0  0  0  0  0  0
   -5.2400   23.4550   17.8840 C   0  0  0  0  0  0  0  0  0  0  0  0
   -4.6160   24.4560   17.2120 O   0  0  0  0  0  0  0  0  0  0  0  0
    1.1260   28.6510    9.9930 C   0  0  0  0  0  0  0  0  0  0  0  0
    1.7900   29.3180    8.9610 C   0  0  0  0  0  0  0  0  0  0  0  0
    2.5085   31.6110    7.4406 H   0  0  0  0  0  0  0  0  0  0  0  0
    2.3614   30.1753    6.3712 H   0  0  0  0  0  0  0  0  0  0  0  0
    1.0765   31.4306    6.3712 H   0  0  0  0  0  0  0  0  0  0  0  0
   -0.8516   30.9971    7.5892 H   0  0  0  0  0  0  0  0  0  0  0  0
   -2.0489   29.7977    9.4200 H   0  0  0  0  0  0  0  0  0  0  0  0
   -1.1561   26.0996   10.0022 H   0  0  0  0  0  0  0  0  0  0  0  0
    0.1606   26.0081   11.2871 H   0  0  0  0  0  0  0  0  0  0  0  0
   -2.6840   25.5050   11.9140 H   0  0  0  0  0  0  0  0  0  0  0  0
   -2.8690   23.6114   13.3353 H   0  0  0  0  0  0  0  0  0  0  0  0
   -1.2947   21.7006   12.8130 H   0  0  0  0  0  0  0  0  0  0  0  0
   -0.3436   19.6507   13.8970 H   0  0  0  0  0  0  0  0  0  0  0  0
   -1.5652   23.6487   16.6954 H   0  0  0  0  0  0  0  0  0  0  0  0
    0.9912   20.0984   18.3693 H   0  0  0  0  0  0  0  0  0  0  0  0
   -0.7184   19.4724   18.5145 H   0  0  0  0  0  0  0  0  0  0  0  0
   -1.0350   26.3763   14.6270 H   0  0  0  0  0  0  0  0  0  0  0  0
   -4.3817   26.1580   15.2399 H   0  0  0  0  0  0  0  0  0  0  0  0
   -4.5138   24.9082   13.9237 H   0  0  0  0  0  0  0  0  0  0  0  0
   -5.6628   22.5029   14.7538 H   0  0  0  0  0  0  0  0  0  0  0  0
   -6.2937   21.6069   17.2583 H   0  0  0  0  0  0  0  0  0  0  0  0
   -5.3292   23.3954   18.9788 H   0  0  0  0  0  0  0  0  0  0  0  0
    1.6795   27.9825   10.6689 H   0  0  0  0  0  0  0  0  0  0  0  0
    2.8748   29.1862    8.8354 H   0  0  0  0  0  0  0  0  0  0  0  0
  1  2  1  0
  2  3  2  0
  3  4  1  0
  4  5  2  0
  5  6  1  0
  6  7  2  0
  6  8  2  0
  6  9  1  0
  9 10  1  0
 10 11  1  0
 11 12  2  0
 11 13  1  0
 13 14  1  0
 14 15  2  0
 15 16  1  0
 16 17  2  0
 17 18  1  0
 18 19  2  0
 18 20  1  0
 20 21  1  0
 21 22  1  0
 13 23  1  0
 23 24  1  0
 24 25  2  0
 23 26  1  0
 26 27  1  0
 27 28  2  0
 28 29  1  0
 29 30  2  0
 30 31  1  0
  5 32  1  0
 32 33  2  0
 33  2  1  0
 19 14  1  0
 31 27  1  0
 22 17  1  0
  1 34  1  0
  1 35  1  0
  1 36  1  0
  3 37  1  0
  4 38  1  0
  9 39  1  0
  9 40  1  0
 10 41  1  0
 13 42  1  6
 15 43  1  0
 16 44  1  0
 19 45  1  0
 21 46  1  0
 21 47  1  0
 24 48  1  0
 26 49  1  0
 26 50  1  0
 28 51  1  0
 29 52  1  0
 30 53  1  0
 32 54  1  0
 33 55  1  0
M  END
>  <vina_affinity>  (55) 
-8.119

$$$$
dec_C13574518
     RDKit          3D

 82 85  0  0  0  0  0  0  0  0999 V2000
    4.4840   22.8280    5.6030 C   0  0  0  0  0  0  0  0  0  0  0  0
    4.1710   21.8300    6.7020 C   0  0  0  0  0  0  0  0  0  0  0  0
    3.1670   20.9310    6.2160 O   0  0  0  0  0  0  0  0  0  0  0  0
    2.2120   20.6190    7.1360 C   0  0  0  0  0  0  0  0  0  0  0  0
    1.2500   19.8990    6.9160 O   0  0  0  0  0  0  0  0  0  0  0  0
    2.5260   21.2490    8.3170 N   0  0  0  0  0  0  0  0  0  0  0  0
    1.7260   21.1410    9.4110 N   0  0  0  0  0  0  0  0  0  0  0  0
    2.1770   20.5620   10.4920 C   0  0  0  0  0  0  0  0  0  0  0  0
    3.5650   19.9590   10.5580 C   0  0  0  0  0  0  0  0  0  0  0  0
    1.2100   20.4980   11.7360 C   0  0  2  0  0  0  0  0  0  0  0  0
    1.5310   19.2900   12.4750 O   0  0  0  0  0  0  0  0  0  0  0  0
    0.4580   18.6490   13.1540 C   0  0  0  0  0  0  0  0  0  0  0  0
   -0.3170   20.4800   11.4440 C   0  0  2  0  0  0  0  0  0  0  0  0
   -0.6380   19.9200   10.1630 O   0  0  0  0  0  0  0  0  0  0  0  0
   -1.0300   18.6150   10.1640 C   0  0  0  0  0  0  0  0  0  0  0  0
   -0.0050   17.7760    9.4660 C   0  0  0  0  0  0  0  0  0  0  0  0
   -2.0610   18.1820   10.6560 O   0  0  0  0  0  0  0  0  0  0  0  0
   -0.7700   21.9250   11.5860 C   0  0  0  0  0  0  0  0  0  0  0  0
   -0.0380   22.3840   12.8440 C   0  0  2  0  0  0  0  0  0  0  0  0
   -0.0650   23.9050   13.1260 C   0  0  2  0  0  0  0  0  0  0  0  0
   -1.5000   24.4430   13.2980 C   0  0  0  0  0  0  0  0  0  0  0  0
   -1.5830   25.9340   13.2090 C   0  0  0  0  0  0  0  0  0  0  0  0
   -0.8200   26.6370   12.3530 C   0  0  0  0  0  0  0  0  0  0  0  0
   -0.8820   28.1450   12.3030 C   0  0  0  0  0  0  0  0  0  0  0  0
   -0.7020   28.6850   10.8810 C   0  0  1  0  0  0  0  0  0  0  0  0
   -0.6680   30.1270   10.8910 O   0  0  0  0  0  0  0  0  0  0  0  0
   -1.1630   30.7470    9.7860 C   0  0  0  0  0  0  0  0  0  0  0  0
   -2.6460   30.5450    9.7100 C   0  0  0  0  0  0  0  0  0  0  0  0
   -0.5100   31.3760    8.9660 O   0  0  0  0  0  0  0  0  0  0  0  0
    0.6140   28.2000   10.2540 C   0  0  0  0  0  0  0  0  0  0  0  0
    1.2030   26.9420   10.9050 C   0  0  0  0  0  0  0  0  0  0  0  0
    0.1490   25.9200   11.4130 C   0  0  2  0  0  0  0  0  0  0  0  0
   -0.6250   25.3620   10.1980 C   0  0  0  0  0  0  0  0  0  0  0  0
    0.8640   24.7810   12.2290 C   0  0  2  0  0  0  0  0  0  0  0  0
    1.8720   23.9370   11.4320 C   0  0  0  0  0  0  0  0  0  0  0  0
    2.4390   22.8150   12.2950 C   0  0  0  0  0  0  0  0  0  0  0  0
    1.3930   21.7500   12.7350 C   0  0  2  0  0  0  0  0  0  0  0  0
    1.8270   21.2830   14.1500 C   0  0  0  0  0  0  0  0  0  0  0  0
    4.7845   23.7860    6.0524 H   0  0  0  0  0  0  0  0  0  0  0  0
    5.3042   22.4420    4.9799 H   0  0  0  0  0  0  0  0  0  0  0  0
    3.5903   22.9796    4.9799 H   0  0  0  0  0  0  0  0  0  0  0  0
    5.0792   21.2676    6.9643 H   0  0  0  0  0  0  0  0  0  0  0  0
    3.8106   22.3534    7.5999 H   0  0  0  0  0  0  0  0  0  0  0  0
    3.3510   21.8300    8.3120 H   0  0  0  0  0  0  0  0  0  0  0  0
    3.8595   19.8310   11.6101 H   0  0  0  0  0  0  0  0  0  0  0  0
    3.5638   18.9803   10.0559 H   0  0  0  0  0  0  0  0  0  0  0  0
    4.2796   20.6278   10.0559 H   0  0  0  0  0  0  0  0  0  0  0  0
    0.6064   18.7377   14.2403 H   0  0  0  0  0  0  0  0  0  0  0  0
   -0.4917   19.1279   12.8734 H   0  0  0  0  0  0  0  0  0  0  0  0
    0.4295   17.5858   12.8734 H   0  0  0  0  0  0  0  0  0  0  0  0
   -0.8472   19.8223   12.1485 H   0  0  0  0  0  0  0  0  0  0  0  0
    0.6201   17.2643   10.2126 H   0  0  0  0  0  0  0  0  0  0  0  0
   -0.5099   17.0286    8.8363 H   0  0  0  0  0  0  0  0  0  0  0  0
    0.6278   18.4187    8.8363 H   0  0  0  0  0  0  0  0  0  0  0  0
   -0.4701   22.5224   10.7124 H   0  0  0  0  0  0  0  0  0  0  0  0
   -1.8625   22.0355   11.6518 H   0  0  0  0  0  0  0  0  0  0  0  0
   -0.5630   22.0320   13.7442 H   0  0  0  0  0  0  0  0  0  0  0  0
    0.4183   24.0158   14.1079 H   0  0  0  0  0  0  0  0  0  0  0  0
   -2.1331   24.0096   12.5097 H   0  0  0  0  0  0  0  0  0  0  0  0
   -1.8394   24.1554   14.3040 H   0  0  0  0  0  0  0  0  0  0  0  0
   -2.2875   26.4703   13.8617 H   0  0  0  0  0  0  0  0  0  0  0  0
   -1.8603   28.4721   12.6849 H   0  0  0  0  0  0  0  0  0  0  0  0
   -0.0598   28.5373   12.9196 H   0  0  0  0  0  0  0  0  0  0  0  0
   -1.5540   28.3147   10.2920 H   0  0  0  0  0  0  0  0  0  0  0  0
   -3.0610   30.4885   10.7272 H   0  0  0  0  0  0  0  0  0  0  0  0
   -3.1040   31.3891    9.1735 H   0  0  0  0  0  0  0  0  0  0  0  0
   -2.8616   29.6092    9.1735 H   0  0  0  0  0  0  0  0  0  0  0  0
    0.4289   27.9826    9.1917 H   0  0  0  0  0  0  0  0  0  0  0  0
    1.3485   29.0045   10.4067 H   0  0  0  0  0  0  0  0  0  0  0  0
    1.8391   26.4378   10.1626 H   0  0  0  0  0  0  0  0  0  0  0  0
    1.7586   27.2819   11.7914 H   0  0  0  0  0  0  0  0  0  0  0  0
   -1.4703   24.7526   10.5502 H   0  0  0  0  0  0  0  0  0  0  0  0
   -1.0031   26.1966    9.5894 H   0  0  0  0  0  0  0  0  0  0  0  0
    0.0473   24.7395    9.5894 H   0  0  0  0  0  0  0  0  0  0  0  0
    1.4663   25.3712   12.9354 H   0  0  0  0  0  0  0  0  0  0  0  0
    1.3658   23.4999   10.5587 H   0  0  0  0  0  0  0  0  0  0  0  0
    2.6990   24.5865   11.1091 H   0  0  0  0  0  0  0  0  0  0  0  0
    3.2281   22.3058   11.7222 H   0  0  0  0  0  0  0  0  0  0  0  0
    2.8131   23.2862   13.2159 H   0  0  0  0  0  0  0  0  0  0  0  0
    1.2858   21.8653   14.9103 H   0  0  0  0  0  0  0  0  0  0  0  0
    1.5935   20.2149   14.2713 H   0  0  0  0  0  0  0  0  0  0  0  0
    2.9093   21.4378   14.2713 H   0  0  0  0  0  0  0  0  0  0  0  0
  1  2  1  0
  2  3  1  0
  3  4  1  0
  4  5  2  0
  4  6  1  0
  6  7  1  0
  7  8  2  0
  8  9  1  0
  8 10  1  0
 10 11  1  1
 11 12  1  0
 10 13  1  0
 13 14  1  0
 14 15  1  0
 15 16  1  0
 15 17  2  0
 13 18  1  0
 18 19  1  0
 19 20  1  0
 20 21  1  0
 21 22  1  0
 22 23  2  0
 23 24  1  0
 24 25  1  0
 25 26  1  0
 26 27  1  0
 27 28  1  0
 27 29  2  0
 25 30  1  0
 30 31  1  0
 31 32  1  0
 32 33  1  6
 32 34  1  0
 34 35  1  0
 35 36  1  0
 36 37  1  0
 37 38  1  1
 37 10  1  0
 37 19  1  0
 34 20  1  0
 32 23  1  0
  1 39  1  0
  1 40  1  0
  1 41  1  0
  2 42  1  0
  2 43  1  0
  6 44  1  0
  9 45  1  0
  9 46  1  0
  9 47  1  0
 12 48  1  0
 12 49  1  0
 12 50  1  0
 13 51  1  1
 16 52  1  0
 16 53  1  0
 16 54  1  0
 18 55  1  0
 18 56  1  0
 19 57  1  1
 20 58  1  1
 21 59  1  0
 21 60  1  0
 22 61  1  0
 24 62  1  0
 24 63  1  0
 25 64  1  6
 28 65  1  0
 28 66  1  0
 28 67  1  0
 30 68  1  0
 30 69  1  0
 31 70  1  0
 31 71  1  0
 33 72  1  0
 33 73  1  0
 33 74  1  0
 34 75  1  1
 35 76  1  0
 35 77  1  0
 36 78  1  0
 36 79  1  0
 38 80  1  0
 38 81  1  0
 38 82  1  0
M  END
>  <vina_affinity>  (56) 
-6.214

$$$$
dec_C20701364
     RDKit          3D

 53 57  0  0  0  0  0  0  0  0999 V2000
   -4.7030   23.5030   17.5370 O   0  0  0  0  0  0  0  0  0  0  0  0
   -4.7640   23.4720   16.0920 S   0  0  0  0  0  0  0  0  0  0  0  0
   -6.0200   23.6310   15.3920 O   0  0  0  0  0  0  0  0  0  0  0  0
   -3.6520   24.7010   15.4540 C   0  0  0  0  0  0  0  0  0  0  0  0
   -3.4970   25.8980   16.1540 C   0  0  0  0  0  0  0  0  0  0  0  0
   -2.6460   26.8820   15.6510 C   0  0  0  0  0  0  0  0  0  0  0  0
   -1.9170   26.6700   14.4720 C   0  0  0  0  0  0  0  0  0  0  0  0
   -2.0900   25.4530   13.7700 C   0  0  0  0  0  0  0  0  0  0  0  0
   -2.9600   24.4720   14.2630 C   0  0  0  0  0  0  0  0  0  0  0  0
   -1.3640   25.3090   12.4610 C   0  0  2  0  0  0  0  0  0  0  0  0
   -0.9220   23.9650   11.9610 C   0  0  0  0  0  0  0  0  0  0  0  0
    0.2820   24.0560   11.3720 C   0  0  0  0  0  0  0  0  0  0  0  0
    0.8310   25.4550   11.4600 C   0  0  0  0  0  0  0  0  0  0  0  0
   -0.0000   25.9860   12.6230 C   0  0  1  0  0  0  0  0  0  0  0  0
   -0.1600   27.4830   12.8720 C   0  0  1  0  0  0  0  0  0  0  0  0
   -0.5180   28.3220   11.6550 C   0  0  0  0  0  0  0  0  0  0  0  0
   -1.8380   28.7420   11.4080 C   0  0  0  0  0  0  0  0  0  0  0  0
   -2.1530   29.5060   10.2810 C   0  0  0  0  0  0  0  0  0  0  0  0
   -3.7800   29.9980   10.0130 Cl  0  0  0  0  0  0  0  0  0  0  0  0
   -1.1660   29.8710    9.3720 C   0  0  0  0  0  0  0  0  0  0  0  0
    0.1450   29.4640    9.6000 C   0  0  0  0  0  0  0  0  0  0  0  0
    1.3730   29.9110    8.4740 Cl  0  0  0  0  0  0  0  0  0  0  0  0
    0.4670   28.6970   10.7290 C   0  0  0  0  0  0  0  0  0  0  0  0
    1.7580   28.2890   10.9450 O   0  0  0  0  0  0  0  0  0  0  0  0
   -1.1450   27.7190   13.9540 N   0  0  0  0  0  0  0  0  0  0  0  0
   -4.0460   22.0180   15.5720 N   0  0  0  0  0  0  0  0  0  0  0  0
   -2.8830   21.5110   16.3670 C   0  0  0  0  0  0  0  0  0  0  0  0
   -3.3290   20.6930   17.5860 C   0  0  0  0  0  0  0  0  0  0  0  0
   -4.2160   19.6300   17.2110 O   0  0  0  0  0  0  0  0  0  0  0  0
   -5.3850   20.1560   16.5670 C   0  0  0  0  0  0  0  0  0  0  0  0
   -5.0060   20.9050   15.2870 C   0  0  0  0  0  0  0  0  0  0  0  0
   -4.0416   26.0643   17.0951 H   0  0  0  0  0  0  0  0  0  0  0  0
   -2.5453   27.8375   16.1866 H   0  0  0  0  0  0  0  0  0  0  0  0
   -3.0971   23.5277   13.7156 H   0  0  0  0  0  0  0  0  0  0  0  0
   -2.1235   25.6959   11.7657 H   0  0  0  0  0  0  0  0  0  0  0  0
   -1.5022   23.0360   12.0625 H   0  0  0  0  0  0  0  0  0  0  0  0
    0.8005   23.2156   10.8873 H   0  0  0  0  0  0  0  0  0  0  0  0
    1.9066   25.4588   11.6902 H   0  0  0  0  0  0  0  0  0  0  0  0
    0.7617   26.0417   10.5321 H   0  0  0  0  0  0  0  0  0  0  0  0
    0.5774   25.7417   13.5268 H   0  0  0  0  0  0  0  0  0  0  0  0
    0.8435   27.8239   13.1665 H   0  0  0  0  0  0  0  0  0  0  0  0
   -2.6350   28.4645   12.1135 H   0  0  0  0  0  0  0  0  0  0  0  0
   -1.4178   30.4724    8.4860 H   0  0  0  0  0  0  0  0  0  0  0  0
    2.0520   27.8110   10.1450 H   0  0  0  0  0  0  0  0  0  0  0  0
   -0.8130   28.3700   14.6600 H   0  0  0  0  0  0  0  0  0  0  0  0
   -2.2622   20.8736   15.7202 H   0  0  0  0  0  0  0  0  0  0  0  0
   -2.3174   22.3811   16.7318 H   0  0  0  0  0  0  0  0  0  0  0  0
   -2.4409   20.2626   18.0718 H   0  0  0  0  0  0  0  0  0  0  0  0
   -3.8657   21.3634   18.2734 H   0  0  0  0  0  0  0  0  0  0  0  0
   -6.0617   19.3267   16.3133 H   0  0  0  0  0  0  0  0  0  0  0  0
   -5.8819   20.8573   17.2535 H   0  0  0  0  0  0  0  0  0  0  0  0
   -4.5385   20.1997   14.5842 H   0  0  0  0  0  0  0  0  0  0  0  0
   -5.9202   21.3373   14.8541 H   0  0  0  0  0  0  0  0  0  0  0  0
  1  2  2  0
  2  3  2  0
  2  4  1  0
  4  5  2  0
  5  6  1  0
  6  7  2  0
  7  8  1  0
  8  9  2  0
  8 10  1  0
 10 11  1  0
 11 12  2  0
 12 13  1  0
 13 14  1  0
 14 15  1  0
 15 16  1  0
 16 17  2  0
 17 18  1  0
 18 19  1  0
 18 20  2  0
 20 21  1  0
 21 22  1  0
 21 23  2  0
 23 24  1  0
 15 25  1  0
  2 26  1  0
 26 27  1  0
 27 28  1  0
 28 29  1  0
 29 30  1  0
 30 31  1  0
  9  4  1  0
 14 10  1  0
 23 16  1  0
 31 26  1  0
 25  7  1  0
  5 32  1  0
  6 33  1  0
  9 34  1  0
 10 35  1  6
 11 36  1  0
 12 37  1  0
 13 38  1  0
 13 39  1  0
 14 40  1  1
 15 41  1  1
 17 42  1  0
 20 43  1  0
 24 44  1  0
 25 45  1  0
 27 46  1  0
 27 47  1  0
 28 48  1  0
 28 49  1  0
 30 50  1  0
 30 51  1  0
 31 52  1  0
 31 53  1  0
M  END
>  <vina_affinity>  (57) 
-8.640

$$$$
dec_C12820476
     RDKit          3D

 54 58  0  0  0  0  0  0  0  0999 V2000
   -1.3900   24.2220   11.5070 O   0  0  0  0  0  0  0  0  0  0  0  0
   -0.3190   24.7910   11.3210 C   0  0  0  0  0  0  0  0  0  0  0  0
    0.9540   24.0540   10.9720 C   0  0  0  0  0  0  0  0  0  0  0  0
    2.1800   24.8710   11.3630 C   0  0  0  0  0  0  0  0  0  0  0  0
    2.9230   25.3340   10.1930 N   0  0  0  0  0  0  0  0  0  0  0  0
    3.3500   24.3230    9.3330 N   0  0  0  0  0  0  0  0  0  0  0  0
    4.1050   24.5800    8.2110 C   0  0  0  0  0  0  0  0  0  0  0  0
    4.6230   23.6600    7.5870 O   0  0  0  0  0  0  0  0  0  0  0  0
    4.2360   25.9960    7.8050 C   0  0  0  0  0  0  0  0  0  0  0  0
    4.9210   26.2600    6.6540 N   0  0  0  0  0  0  0  0  0  0  0  0
    5.0020   27.5650    6.3090 C   0  0  0  0  0  0  0  0  0  0  0  0
    4.4250   28.5680    7.0690 C   0  0  0  0  0  0  0  0  0  0  0  0
    3.7430   28.3120    8.2070 N   0  0  0  0  0  0  0  0  0  0  0  0
    3.6630   26.9950    8.5660 C   0  0  0  0  0  0  0  0  0  0  0  0
    2.9390   26.6710    9.8180 C   0  0  0  0  0  0  0  0  0  0  0  0
    2.3860   27.5480   10.4790 O   0  0  0  0  0  0  0  0  0  0  0  0
   -0.1280   26.1430   11.5010 N   0  0  0  0  0  0  0  0  0  0  0  0
   -0.8100   27.0190   10.6900 C   0  0  0  0  0  0  0  0  0  0  0  0
   -1.5030   26.6950    9.7390 O   0  0  0  0  0  0  0  0  0  0  0  0
   -0.5360   28.3220   11.0590 N   0  0  0  0  0  0  0  0  0  0  0  0
   -1.1270   29.4940   10.3980 C   0  0  2  0  0  0  0  0  0  0  0  0
   -2.6690   29.5150   10.5360 C   0  0  0  0  0  0  0  0  0  0  0  0
   -3.2530   30.7850    9.8910 C   0  0  1  0  0  0  0  0  0  0  0  0
   -2.6740   32.0240   10.5930 C   0  0  0  0  0  0  0  0  0  0  0  0
   -1.1440   32.0420   10.4510 C   0  0  2  0  0  0  0  0  0  0  0  0
   -0.7710   32.0770    8.9610 C   0  0  0  0  0  0  0  0  0  0  0  0
   -1.3370   30.8380    8.2500 C   0  0  2  0  0  0  0  0  0  0  0  0
   -2.8680   30.8200    8.4020 C   0  0  0  0  0  0  0  0  0  0  0  0
   -0.7500   29.5700    8.8950 C   0  0  0  0  0  0  0  0  0  0  0  0
   -0.5650   30.7680   11.0860 C   0  0  0  0  0  0  0  0  0  0  0  0
    0.9739   23.0947   11.5100 H   0  0  0  0  0  0  0  0  0  0  0  0
    0.9759   23.8854    9.8852 H   0  0  0  0  0  0  0  0  0  0  0  0
    1.8537   25.7451   11.9456 H   0  0  0  0  0  0  0  0  0  0  0  0
    2.8450   24.2251   11.9551 H   0  0  0  0  0  0  0  0  0  0  0  0
    3.3720   23.3630    9.6710 H   0  0  0  0  0  0  0  0  0  0  0  0
    5.5452   27.8391    5.3926 H   0  0  0  0  0  0  0  0  0  0  0  0
    4.5254   29.6110    6.7343 H   0  0  0  0  0  0  0  0  0  0  0  0
    0.8280   26.4460   11.6110 H   0  0  0  0  0  0  0  0  0  0  0  0
   -0.4110   28.4180   12.0570 H   0  0  0  0  0  0  0  0  0  0  0  0
   -3.0889   28.6297   10.0361 H   0  0  0  0  0  0  0  0  0  0  0  0
   -2.9297   29.5077   11.6046 H   0  0  0  0  0  0  0  0  0  0  0  0
   -4.3484   30.7809    9.9915 H   0  0  0  0  0  0  0  0  0  0  0  0
   -3.0931   32.9317   10.1342 H   0  0  0  0  0  0  0  0  0  0  0  0
   -2.9370   31.9899   11.6605 H   0  0  0  0  0  0  0  0  0  0  0  0
   -0.7356   32.9303   10.9551 H   0  0  0  0  0  0  0  0  0  0  0  0
   -1.1901   32.9843    8.5015 H   0  0  0  0  0  0  0  0  0  0  0  0
    0.3246   32.0818    8.8623 H   0  0  0  0  0  0  0  0  0  0  0  0
   -1.0702   30.8698    7.1833 H   0  0  0  0  0  0  0  0  0  0  0  0
   -3.2899   31.7240    7.9386 H   0  0  0  0  0  0  0  0  0  0  0  0
   -3.2676   29.9229    7.9065 H   0  0  0  0  0  0  0  0  0  0  0  0
   -1.1479   28.6845    8.3778 H   0  0  0  0  0  0  0  0  0  0  0  0
    0.3459   29.6034    8.8067 H   0  0  0  0  0  0  0  0  0  0  0  0
    0.5299   30.7798   10.9804 H   0  0  0  0  0  0  0  0  0  0  0  0
   -0.8513   30.7463   12.1479 H   0  0  0  0  0  0  0  0  0  0  0  0
  1  2  2  0
  2  3  1  0
  3  4  1  0
  4  5  1  0
  5  6  1  0
  6  7  1  0
  7  8  2  0
  7  9  1  0
  9 10  2  0
 10 11  1  0
 11 12  2  0
 12 13  1  0
 13 14  2  0
 14 15  1  0
 15 16  2  0
  2 17  1  0
 17 18  1  0
 18 19  2  0
 18 20  1  0
 21 20  1  1
 21 22  1  0
 22 23  1  0
 23 24  1  0
 24 25  1  0
 25 26  1  0
 26 27  1  0
 27 28  1  0
 27 29  1  0
 25 30  1  0
 15  5  1  0
 29 21  1  0
 14  9  1  0
 30 21  1  0
 28 23  1  0
  3 31  1  0
  3 32  1  0
  4 33  1  0
  4 34  1  0
  6 35  1  0
 11 36  1  0
 12 37  1  0
 17 38  1  0
 20 39  1  0
 22 40  1  0
 22 41  1  0
 23 42  1  6
 24 43  1  0
 24 44  1  0
 25 45  1  1
 26 46  1  0
 26 47  1  0
 27 48  1  6
 28 49  1  0
 28 50  1  0
 29 51  1  0
 29 52  1  0
 30 53  1  0
 30 54  1  0
M  END
>  <vina_affinity>  (58) 
-8.373

$$$$
dec_C13768602
     RDKit          3D

 47 50  0  0  0  0  0  0  0  0999 V2000
    1.8930   18.5210   16.6500 C   0  0  0  0  0  0  0  0  0  0  0  0
    2.9630   18.8160   15.2170 S   0  0  0  0  0  0  0  0  0  0  0  0
    2.0680   20.1460   14.4370 C   0  0  0  0  0  0  0  0  0  0  0  0
    0.8420   20.5490   14.9740 C   0  0  0  0  0  0  0  0  0  0  0  0
    0.1230   21.5950   14.3870 C   0  0  0  0  0  0  0  0  0  0  0  0
    0.6280   22.2680   13.2700 C   0  0  0  0  0  0  0  0  0  0  0  0
   -0.1660   23.3440   12.6680 C   0  0  0  0  0  0  0  0  0  0  0  0
    0.1810   24.6430   12.7160 C   0  0  0  0  0  0  0  0  0  0  0  0
   -0.5920   25.8120   12.1400 C   0  0  1  0  0  0  0  0  0  0  0  0
   -1.9780   25.5010   12.3720 N   0  0  0  0  0  0  0  0  0  0  0  0
   -2.5000   26.1190   13.4830 C   0  0  0  0  0  0  0  0  0  0  0  0
   -3.5850   25.8620   13.9800 O   0  0  0  0  0  0  0  0  0  0  0  0
   -1.4840   27.1320   13.9640 C   0  0  0  0  0  0  0  0  0  0  0  0
   -0.3940   27.0360   12.9690 N   0  0  0  0  0  0  0  0  0  0  0  0
   -0.3790   28.0980   12.0310 C   0  0  0  0  0  0  0  0  0  0  0  0
   -0.3810   29.4540   12.3290 C   0  0  0  0  0  0  0  0  0  0  0  0
   -0.3630   30.3820   11.2850 C   0  0  0  0  0  0  0  0  0  0  0  0
   -0.3270   29.9510    9.9520 C   0  0  0  0  0  0  0  0  0  0  0  0
   -0.2970   28.5900    9.6520 C   0  0  0  0  0  0  0  0  0  0  0  0
   -0.3190   27.6760   10.7000 C   0  0  0  0  0  0  0  0  0  0  0  0
   -0.2380   26.1710   10.6400 C   0  0  0  0  0  0  0  0  0  0  0  0
   -1.2170   25.5690    9.6220 C   0  0  0  0  0  0  0  0  0  0  0  0
    1.2020   25.7840   10.2420 C   0  0  0  0  0  0  0  0  0  0  0  0
    1.8550   21.8610   12.7340 C   0  0  0  0  0  0  0  0  0  0  0  0
    2.5740   20.8130   13.3200 C   0  0  0  0  0  0  0  0  0  0  0  0
    2.4670   18.6792   17.5749 H   0  0  0  0  0  0  0  0  0  0  0  0
    1.0426   19.2182   16.6224 H   0  0  0  0  0  0  0  0  0  0  0  0
    1.5200   17.4865   16.6224 H   0  0  0  0  0  0  0  0  0  0  0  0
    0.4406   20.0406   15.8631 H   0  0  0  0  0  0  0  0  0  0  0  0
   -0.8491   21.8912   14.8079 H   0  0  0  0  0  0  0  0  0  0  0  0
   -1.0971   23.0740   12.1483 H   0  0  0  0  0  0  0  0  0  0  0  0
    1.1253   24.8815   13.2272 H   0  0  0  0  0  0  0  0  0  0  0  0
   -2.4500   24.6980   11.9880 H   0  0  0  0  0  0  0  0  0  0  0  0
   -1.9151   28.1439   13.9770 H   0  0  0  0  0  0  0  0  0  0  0  0
   -1.1416   26.9373   14.9911 H   0  0  0  0  0  0  0  0  0  0  0  0
   -0.3966   29.7937   13.3751 H   0  0  0  0  0  0  0  0  0  0  0  0
   -0.3772   31.4585   11.5108 H   0  0  0  0  0  0  0  0  0  0  0  0
   -0.3224   30.6908    9.1379 H   0  0  0  0  0  0  0  0  0  0  0  0
   -0.2568   28.2461    8.6079 H   0  0  0  0  0  0  0  0  0  0  0  0
   -2.0366   25.0650   10.1552 H   0  0  0  0  0  0  0  0  0  0  0  0
   -1.6284   26.3704    8.9907 H   0  0  0  0  0  0  0  0  0  0  0  0
   -0.6875   24.8403    8.9907 H   0  0  0  0  0  0  0  0  0  0  0  0
    1.8024   25.6226   11.1495 H   0  0  0  0  0  0  0  0  0  0  0  0
    1.1819   24.8594    9.6464 H   0  0  0  0  0  0  0  0  0  0  0  0
    1.6481   26.5941    9.6464 H   0  0  0  0  0  0  0  0  0  0  0  0
    2.2575   22.3688   11.8451 H   0  0  0  0  0  0  0  0  0  0  0  0
    3.5443   20.5129   12.8976 H   0  0  0  0  0  0  0  0  0  0  0  0
  1  2  1  0
  2  3  1  0
  3  4  2  0
  4  5  1  0
  5  6  2  0
  6  7  1  0
  7  8  2  0
  9  8  1  1
  9 10  1  0
 10 11  1  0
 11 12  2  0
 11 13  1  0
 13 14  1  0
 14 15  1  0
 15 16  2  0
 16 17  1  0
 17 18  2  0
 18 19  1  0
 19 20  2  0
 20 21  1  0
 21 22  1  0
 21 23  1  0
  6 24  1  0
 24 25  2  0
 25  3  1  0
 14  9  1  0
 20 15  1  0
 21  9  1  0
  1 26  1  0
  1 27  1  0
  1 28  1  0
  4 29  1  0
  5 30  1  0
  7 31  1  0
  8 32  1  0
 10 33  1  0
 13 34  1  0
 13 35  1  0
 16 36  1  0
 17 37  1  0
 18 38  1  0
 19 39  1  0
 22 40  1  0
 22 41  1  0
 22 42  1  0
 23 43  1  0
 23 44  1  0
 23 45  1  0
 24 46  1  0
 25 47  1  0
M  END
>  <vina_affinity>  (59) 
-7.470

$$$$
dec_C32672477
     RDKit          3D

 59 62  0  0  0  0  0  0  0  0999 V2000
   -2.9080   20.0840   15.1870 C   0  0  0  0  0  0  0  0  0  0  0  0
   -3.6090   20.7190   16.4060 C   0  0  0  0  0  0  0  0  0  0  0  0
   -2.5940   20.8210   17.5600 C   0  0  0  0  0  0  0  0  0  0  0  0
   -4.7570   19.7800   16.8300 C   0  0  0  0  0  0  0  0  0  0  0  0
   -4.1220   22.0960   16.0650 C   0  0  0  0  0  0  0  0  0  0  0  0
   -5.4270   22.3870   15.9690 N   0  0  0  0  0  0  0  0  0  0  0  0
   -5.4380   23.7520   15.6900 O   0  0  0  0  0  0  0  0  0  0  0  0
   -4.1360   24.1520   15.6600 C   0  0  0  0  0  0  0  0  0  0  0  0
   -3.8910   25.5910   15.3930 C   0  0  0  0  0  0  0  0  0  0  0  0
   -2.4110   25.9500   15.3660 C   0  0  0  0  0  0  0  0  0  0  0  0
   -2.0140   26.5200   14.0200 C   0  0  0  0  0  0  0  0  0  0  0  0
   -0.9190   27.0420   13.8370 O   0  0  0  0  0  0  0  0  0  0  0  0
   -2.9710   26.3710   13.0410 N   0  0  0  0  0  0  0  0  0  0  0  0
   -2.6680   26.6960   11.6610 C   0  0  0  0  0  0  0  0  0  0  0  0
   -3.0910   28.1280   11.3380 C   0  0  0  0  0  0  0  0  0  0  0  0
   -2.0500   28.9840   10.5790 C   0  0  2  0  0  0  0  0  0  0  0  0
   -2.7260   30.0770    9.7110 C   0  0  0  0  0  0  0  0  0  0  0  0
   -1.6670   30.9520    9.0150 C   0  0  1  0  0  0  0  0  0  0  0  0
   -0.7870   31.6300   10.0750 C   0  0  0  0  0  0  0  0  0  0  0  0
   -0.0840   30.5650   10.9310 C   0  0  2  0  0  0  0  0  0  0  0  0
    0.7880   29.6780   10.0280 C   0  0  0  0  0  0  0  0  0  0  0  0
   -0.0850   28.9920    8.9660 C   0  0  2  0  0  0  0  0  0  0  0  0
   -0.7880   30.0650    8.1180 C   0  0  0  0  0  0  0  0  0  0  0  0
   -1.1470   28.1210    9.6630 C   0  0  0  0  0  0  0  0  0  0  0  0
   -1.1430   29.6930   11.6230 C   0  0  0  0  0  0  0  0  0  0  0  0
   -3.2850   23.1750   15.8900 N   0  0  0  0  0  0  0  0  0  0  0  0
   -2.1342   19.3830   15.5331 H   0  0  0  0  0  0  0  0  0  0  0  0
   -3.6480   19.5425   14.5794 H   0  0  0  0  0  0  0  0  0  0  0  0
   -2.4421   20.8738   14.5794 H   0  0  0  0  0  0  0  0  0  0  0  0
   -3.1255   20.7676   18.5216 H   0  0  0  0  0  0  0  0  0  0  0  0
   -1.8760   19.9905   17.4913 H   0  0  0  0  0  0  0  0  0  0  0  0
   -2.0556   21.7778   17.4913 H   0  0  0  0  0  0  0  0  0  0  0  0
   -4.8092   19.7373   17.9279 H   0  0  0  0  0  0  0  0  0  0  0  0
   -5.7089   20.1618   16.4322 H   0  0  0  0  0  0  0  0  0  0  0  0
   -4.5716   18.7713   16.4322 H   0  0  0  0  0  0  0  0  0  0  0  0
   -4.3310   25.8460   14.4176 H   0  0  0  0  0  0  0  0  0  0  0  0
   -4.3517   26.1601   16.2139 H   0  0  0  0  0  0  0  0  0  0  0  0
   -2.2081   26.6976   16.1470 H   0  0  0  0  0  0  0  0  0  0  0  0
   -1.8259   25.0360   15.5453 H   0  0  0  0  0  0  0  0  0  0  0  0
   -3.6460   25.6230   13.2010 H   0  0  0  0  0  0  0  0  0  0  0  0
   -1.5855   26.5932   11.4951 H   0  0  0  0  0  0  0  0  0  0  0  0
   -3.2216   26.0074   11.0058 H   0  0  0  0  0  0  0  0  0  0  0  0
   -4.0014   28.0800   10.7224 H   0  0  0  0  0  0  0  0  0  0  0  0
   -3.2327   28.6234   12.3099 H   0  0  0  0  0  0  0  0  0  0  0  0
   -3.3541   29.5946    8.9476 H   0  0  0  0  0  0  0  0  0  0  0  0
   -3.3401   30.7162   10.3625 H   0  0  0  0  0  0  0  0  0  0  0  0
   -2.1658   31.7197    8.4052 H   0  0  0  0  0  0  0  0  0  0  0  0
   -0.0310   32.2543    9.5763 H   0  0  0  0  0  0  0  0  0  0  0  0
   -1.4182   32.2562   10.7227 H   0  0  0  0  0  0  0  0  0  0  0  0
    0.5466   31.0564   11.6865 H   0  0  0  0  0  0  0  0  0  0  0  0
    1.5469   30.2994    9.5300 H   0  0  0  0  0  0  0  0  0  0  0  0
    1.2802   28.9098   10.6425 H   0  0  0  0  0  0  0  0  0  0  0  0
    0.5449   28.3618    8.3210 H   0  0  0  0  0  0  0  0  0  0  0  0
   -0.0314   30.6882    7.6189 H   0  0  0  0  0  0  0  0  0  0  0  0
   -1.4214   29.5726    7.3655 H   0  0  0  0  0  0  0  0  0  0  0  0
   -1.7699   27.6317    8.8997 H   0  0  0  0  0  0  0  0  0  0  0  0
   -0.6358   27.3674   10.2801 H   0  0  0  0  0  0  0  0  0  0  0  0
   -0.6377   28.9322   12.2361 H   0  0  0  0  0  0  0  0  0  0  0  0
   -1.7724   30.3395   12.2522 H   0  0  0  0  0  0  0  0  0  0  0  0
  1  2  1  0
  2  3  1  0
  2  4  1  0
  2  5  1  0
  5  6  2  0
  6  7  1  0
  7  8  1  0
  8  9  1  0
  9 10  1  0
 10 11  1  0
 11 12  2  0
 11 13  1  0
 13 14  1  0
 14 15  1  0
 16 15  1  1
 16 17  1  0
 17 18  1  0
 18 19  1  0
 19 20  1  0
 20 21  1  0
 21 22  1  0
 22 23  1  0
 22 24  1  0
 20 25  1  0
  8 26  2  0
 26  5  1  0
 24 16  1  0
 25 16  1  0
 23 18  1  0
  1 27  1  0
  1 28  1  0
  1 29  1  0
  3 30  1  0
  3 31  1  0
  3 32  1  0
  4 33  1  0
  4 34  1  0
  4 35  1  0
  9 36  1  0
  9 37  1  0
 10 38  1  0
 10 39  1  0
 13 40  1  0
 14 41  1  0
 14 42  1  0
 15 43  1  0
 15 44  1  0
 17 45  1  0
 17 46  1  0
 18 47  1  6
 19 48  1  0
 19 49  1  0
 20 50  1  1
 21 51  1  0
 21 52  1  0
 22 53  1  6
 23 54  1  0
 23 55  1  0
 24 56  1  0
 24 57  1  0
 25 58  1  0
 25 59  1  0
M  END
>  <vina_affinity>  (60) 
-7.870

$$$$
dec_C38741247
     RDKit          3D

 52 56  0  0  0  0  0  0  0  0999 V2000
    6.2400   22.8780    7.0860 N   0  0  0  0  0  0  0  0  0  0  0  0
    5.9920   24.0900    6.5070 C   0  0  0  0  0  0  0  0  0  0  0  0
    6.8700   24.6330    5.8390 O   0  0  0  0  0  0  0  0  0  0  0  0
    4.6410   24.7420    6.7860 C   0  0  2  0  0  0  0  0  0  0  0  0
    4.4440   25.8980    5.8630 C   0  0  0  0  0  0  0  0  0  0  0  0
    4.4770   27.1130    6.3960 C   0  0  0  0  0  0  0  0  0  0  0  0
    4.2500   28.1930    5.4140 C   0  0  0  0  0  0  0  0  0  0  0  0
    4.3370   27.4200    4.0850 C   0  0  0  0  0  0  0  0  0  0  0  0
    4.1830   25.9200    4.4060 C   0  0  0  0  0  0  0  0  0  0  0  0
    4.7510   27.1660    8.0750 S   0  0  0  0  0  0  0  0  0  0  0  0
    4.5650   25.3150    8.2290 C   0  0  1  0  0  0  0  0  0  0  0  0
    3.2810   25.1160    8.8740 N   0  0  0  0  0  0  0  0  0  0  0  0
    2.9800   23.8980    9.4370 C   0  0  0  0  0  0  0  0  0  0  0  0
    3.6710   22.8970    9.2680 O   0  0  0  0  0  0  0  0  0  0  0  0
    1.7540   23.9000   10.3350 C   0  0  0  0  0  0  0  0  0  0  0  0
    2.0720   24.9020   11.8190 S   0  0  0  0  0  0  0  0  0  0  0  0
    1.0720   26.2740   11.3700 C   0  0  0  0  0  0  0  0  0  0  0  0
   -0.1210   26.3010   11.8580 N   0  0  0  0  0  0  0  0  0  0  0  0
   -1.0210   27.2670   11.5040 C   0  0  0  0  0  0  0  0  0  0  0  0
   -2.1430   27.3490   11.9860 O   0  0  0  0  0  0  0  0  0  0  0  0
   -0.5590   28.2030   10.4760 C   0  0  0  0  0  0  0  0  0  0  0  0
   -1.1890   29.2070    9.8480 C   0  0  0  0  0  0  0  0  0  0  0  0
   -2.5970   29.6610   10.0990 C   0  0  0  0  0  0  0  0  0  0  0  0
   -2.9580   30.8790    9.2420 C   0  0  0  0  0  0  0  0  0  0  0  0
   -1.8950   31.9800    9.3100 C   0  0  0  0  0  0  0  0  0  0  0  0
   -0.4520   31.4740    9.1420 C   0  0  0  0  0  0  0  0  0  0  0  0
   -0.3870   29.9780    8.8400 C   0  0  1  0  0  0  0  0  0  0  0  0
    1.3080   29.3180    8.9610 S   0  0  0  0  0  0  0  0  0  0  0  0
    0.8280   28.0730   10.0770 C   0  0  0  0  0  0  0  0  0  0  0  0
    1.6300   27.1730   10.5090 N   0  0  0  0  0  0  0  0  0  0  0  0
    5.7070   22.5550    7.8850 H   0  0  0  0  0  0  0  0  0  0  0  0
    7.1810   22.5190    6.9830 H   0  0  0  0  0  0  0  0  0  0  0  0
    3.8755   23.9642    6.6481 H   0  0  0  0  0  0  0  0  0  0  0  0
    3.2607   28.6554    5.5463 H   0  0  0  0  0  0  0  0  0  0  0  0
    4.9596   29.0297    5.4943 H   0  0  0  0  0  0  0  0  0  0  0  0
    3.5312   27.7435    3.4097 H   0  0  0  0  0  0  0  0  0  0  0  0
    5.3002   27.6117    3.5895 H   0  0  0  0  0  0  0  0  0  0  0  0
    3.1689   25.5622    4.1746 H   0  0  0  0  0  0  0  0  0  0  0  0
    4.8490   25.2673    3.8226 H   0  0  0  0  0  0  0  0  0  0  0  0
    5.3379   24.8053    8.8230 H   0  0  0  0  0  0  0  0  0  0  0  0
    2.8830   25.9440    9.2990 H   0  0  0  0  0  0  0  0  0  0  0  0
    0.9005   24.3236    9.7854 H   0  0  0  0  0  0  0  0  0  0  0  0
    1.5268   22.8673   10.6383 H   0  0  0  0  0  0  0  0  0  0  0  0
   -3.2858   28.8380    9.8578 H   0  0  0  0  0  0  0  0  0  0  0  0
   -2.6827   29.9475   11.1576 H   0  0  0  0  0  0  0  0  0  0  0  0
   -3.0643   30.5554    8.1961 H   0  0  0  0  0  0  0  0  0  0  0  0
   -3.8973   31.2966    9.6336 H   0  0  0  0  0  0  0  0  0  0  0  0
   -2.1006   32.7079    8.5113 H   0  0  0  0  0  0  0  0  0  0  0  0
   -1.9604   32.4211   10.3156 H   0  0  0  0  0  0  0  0  0  0  0  0
    0.0194   32.0219    8.3128 H   0  0  0  0  0  0  0  0  0  0  0  0
    0.0747   31.6459   10.0923 H   0  0  0  0  0  0  0  0  0  0  0  0
   -0.7733   29.8645    7.8163 H   0  0  0  0  0  0  0  0  0  0  0  0
  1  2  1  0
  2  3  2  0
  2  4  1  0
  4  5  1  0
  5  6  2  0
  6  7  1  0
  7  8  1  0
  8  9  1  0
  6 10  1  0
 10 11  1  0
 11 12  1  0
 12 13  1  0
 13 14  2  0
 13 15  1  0
 15 16  1  0
 16 17  1  0
 17 18  2  0
 18 19  1  0
 19 20  2  0
 19 21  1  0
 21 22  2  0
 22 23  1  0
 23 24  1  0
 24 25  1  0
 25 26  1  0
 26 27  1  0
 27 28  1  0
 28 29  1  0
 29 30  2  0
 11  4  1  0
 30 17  1  0
  9  5  1  0
 29 21  1  0
 27 22  1  0
  1 31  1  0
  1 32  1  0
  4 33  1  1
  7 34  1  0
  7 35  1  0
  8 36  1  0
  8 37  1  0
  9 38  1  0
  9 39  1  0
 11 40  1  1
 12 41  1  0
 15 42  1  0
 15 43  1  0
 23 44  1  0
 23 45  1  0
 24 46  1  0
 24 47  1  0
 25 48  1  0
 25 49  1  0
 26 50  1  0
 26 51  1  0
 27 52  1  6
M  END
>  <vina_affinity>  (61) 
-8.853

$$$$
dec_C48779260
     RDKit          3D

 31 32  0  0  0  0  0  0  0  0999 V2000
   -2.2690   32.8120   10.6850 C   0  0  0  0  0  0  0  0  0  0  0  0
   -1.3620   31.8570   10.0000 C   0  0  0  0  0  0  0  0  0  0  0  0
   -0.4580   32.1920    8.9470 C   0  0  0  0  0  0  0  0  0  0  0  0
    0.1580   31.0250    8.5690 C   0  0  0  0  0  0  0  0  0  0  0  0
    1.4600   30.8630    7.1920 Br  0  0  0  0  0  0  0  0  0  0  0  0
   -0.2970   29.9920    9.3160 O   0  0  0  0  0  0  0  0  0  0  0  0
   -1.2170   30.4850   10.2060 C   0  0  0  0  0  0  0  0  0  0  0  0
   -1.8210   29.5250   11.1160 C   0  0  0  0  0  0  0  0  0  0  0  0
   -2.8610   28.9090   10.8770 O   0  0  0  0  0  0  0  0  0  0  0  0
   -1.1270   29.3050   12.2980 N   0  0  0  0  0  0  0  0  0  0  0  0
   -1.5200   28.1960   13.0840 N   0  0  0  0  0  0  0  0  0  0  0  0
   -0.9350   26.9810   12.7660 C   0  0  0  0  0  0  0  0  0  0  0  0
    0.0680   26.8940   12.0580 O   0  0  0  0  0  0  0  0  0  0  0  0
   -1.6210   25.7930   13.4450 C   0  0  2  0  0  0  0  0  0  0  0  0
   -1.0330   25.4780   14.8120 C   0  0  0  0  0  0  0  0  0  0  0  0
   -1.1980   23.9820   14.9000 C   0  0  0  0  0  0  0  0  0  0  0  0
   -0.9520   23.5600   13.4700 C   0  0  0  0  0  0  0  0  0  0  0  0
   -1.5020   24.5980   12.6490 O   0  0  0  0  0  0  0  0  0  0  0  0
   -2.1635   32.7009   11.7743 H   0  0  0  0  0  0  0  0  0  0  0  0
   -2.0066   33.8399   10.3941 H   0  0  0  0  0  0  0  0  0  0  0  0
   -3.3090   32.6029   10.3941 H   0  0  0  0  0  0  0  0  0  0  0  0
   -0.2880   33.1918    8.5210 H   0  0  0  0  0  0  0  0  0  0  0  0
   -0.1300   29.5060   12.3330 H   0  0  0  0  0  0  0  0  0  0  0  0
   -2.5140   28.1680   13.3380 H   0  0  0  0  0  0  0  0  0  0  0  0
   -2.6737   26.0918   13.5567 H   0  0  0  0  0  0  0  0  0  0  0  0
    0.0276   25.7649   14.8644 H   0  0  0  0  0  0  0  0  0  0  0  0
   -1.5191   26.0224   15.6350 H   0  0  0  0  0  0  0  0  0  0  0  0
   -0.4586   23.5368   15.5820 H   0  0  0  0  0  0  0  0  0  0  0  0
   -2.1731   23.6637   15.2972 H   0  0  0  0  0  0  0  0  0  0  0  0
    0.1270   23.4565   13.2827 H   0  0  0  0  0  0  0  0  0  0  0  0
   -1.4167   22.5870   13.2526 H   0  0  0  0  0  0  0  0  0  0  0  0
  1  2  1  0
  2  3  1  0
  3  4  2  0
  4  5  1  0
  4  6  1  0
  6  7  1  0
  7  8  1  0
  8  9  2  0
  8 10  1  0
 10 11  1  0
 11 12  1  0
 12 13  2  0
 12 14  1  0
 14 15  1  0
 15 16  1  0
 16 17  1  0
 17 18  1  0
  7  2  2  0
 18 14  1  0
  1 19  1  0
  1 20  1  0
  1 21  1  0
  3 22  1  0
 10 23  1  0
 11 24  1  0
 14 25  1  1
 15 26  1  0
 15 27  1  0
 16 28  1  0
 16 29  1  0
 17 30  1  0
 17 31  1  0
M  END
>  <vina_affinity>  (62) 
-7.078

$$$$
dec_C06190960
     RDKit          3D

 66 69  0  0  0  0  0  0  0  0999 V2000
    5.7890   27.6590    2.3260 C   0  0  0  0  0  0  0  0  0  0  0  0
    4.7760   26.9340    3.2050 C   0  0  0  0  0  0  0  0  0  0  0  0
    3.3510   27.0690    2.6900 C   0  0  0  0  0  0  0  0  0  0  0  0
    5.1440   25.5490    3.3900 N   0  0  0  0  0  0  0  0  0  0  0  0
    5.5240   25.2790    4.6830 C   0  0  0  0  0  0  0  0  0  0  0  0
    5.9840   24.2110    5.0520 O   0  0  0  0  0  0  0  0  0  0  0  0
    5.3260   26.3940    5.4360 N   0  0  0  0  0  0  0  0  0  0  0  0
    5.6460   26.5080    6.8450 C   0  0  0  0  0  0  0  0  0  0  0  0
    4.3990   26.5550    7.7420 C   0  0  1  0  0  0  0  0  0  0  0  0
    4.4080   25.3900    8.5820 O   0  0  0  0  0  0  0  0  0  0  0  0
    4.3620   27.8150    8.6220 C   0  0  0  0  0  0  0  0  0  0  0  0
    3.0070   28.1860    8.9590 N   0  0  0  0  0  0  0  0  0  0  0  0
    2.1940   27.4730    9.8640 C   0  0  0  0  0  0  0  0  0  0  0  0
    2.4920   26.4520   10.4650 O   0  0  0  0  0  0  0  0  0  0  0  0
    0.9730   28.1710    9.9350 N   0  0  0  0  0  0  0  0  0  0  0  0
   -0.1700   27.7440   10.7100 C   0  0  0  0  0  0  0  0  0  0  0  0
    0.1380   27.6900   12.2180 C   0  0  2  0  0  0  0  0  0  0  0  0
    0.5140   26.3520   12.5780 O   0  0  0  0  0  0  0  0  0  0  0  0
   -1.0510   28.1780   13.0670 C   0  0  0  0  0  0  0  0  0  0  0  0
   -1.8970   27.0980   13.5400 N   0  0  0  0  0  0  0  0  0  0  0  0
   -3.0320   26.6930   12.9060 C   0  0  0  0  0  0  0  0  0  0  0  0
   -3.4900   27.1450   11.8680 O   0  0  0  0  0  0  0  0  0  0  0  0
   -3.6160   25.6930   13.6460 N   0  0  0  0  0  0  0  0  0  0  0  0
   -2.9270   25.4620   14.8950 C   0  0  0  0  0  0  0  0  0  0  0  0
   -2.4040   24.0360   14.9860 C   0  0  0  0  0  0  0  0  0  0  0  0
   -3.7980   25.8450   16.0850 C   0  0  0  0  0  0  0  0  0  0  0  0
   -1.7680   26.4610   14.7410 C   0  0  0  0  0  0  0  0  0  0  0  0
   -0.8930   26.6660   15.5720 O   0  0  0  0  0  0  0  0  0  0  0  0
    1.0200   29.2620    9.0560 C   0  0  0  0  0  0  0  0  0  0  0  0
    0.0640   30.2070    8.7510 C   0  0  0  0  0  0  0  0  0  0  0  0
    0.4160   31.2030    7.8340 C   0  0  0  0  0  0  0  0  0  0  0  0
    1.6980   31.2310    7.2490 C   0  0  0  0  0  0  0  0  0  0  0  0
    2.6530   30.2580    7.5620 C   0  0  0  0  0  0  0  0  0  0  0  0
    2.2870   29.2820    8.4650 C   0  0  0  0  0  0  0  0  0  0  0  0
    4.8870   27.4300    4.6560 C   0  0  0  0  0  0  0  0  0  0  0  0
    4.6440   28.5680    5.0360 O   0  0  0  0  0  0  0  0  0  0  0  0
    6.5188   28.1814    2.9620 H   0  0  0  0  0  0  0  0  0  0  0  0
    6.3122   26.9290    1.6909 H   0  0  0  0  0  0  0  0  0  0  0  0
    5.2668   28.3897    1.6909 H   0  0  0  0  0  0  0  0  0  0  0  0
    2.6580   27.1347    3.5417 H   0  0  0  0  0  0  0  0  0  0  0  0
    3.2670   27.9791    2.0779 H   0  0  0  0  0  0  0  0  0  0  0  0
    3.0976   26.1908    2.0779 H   0  0  0  0  0  0  0  0  0  0  0  0
    5.2950   24.8700    2.6550 H   0  0  0  0  0  0  0  0  0  0  0  0
    6.2556   25.6403    7.1373 H   0  0  0  0  0  0  0  0  0  0  0  0
    6.1872   27.4555    6.9839 H   0  0  0  0  0  0  0  0  0  0  0  0
    3.5077   26.5798    7.0978 H   0  0  0  0  0  0  0  0  0  0  0  0
    3.6420   25.4810    9.1800 H   0  0  0  0  0  0  0  0  0  0  0  0
    4.9203   27.6197    9.5495 H   0  0  0  0  0  0  0  0  0  0  0  0
    4.8164   28.6431    8.0583 H   0  0  0  0  0  0  0  0  0  0  0  0
   -0.9960   28.4507   10.5421 H   0  0  0  0  0  0  0  0  0  0  0  0
   -0.4396   26.7288   10.3835 H   0  0  0  0  0  0  0  0  0  0  0  0
    0.9744   28.3733   12.4268 H   0  0  0  0  0  0  0  0  0  0  0  0
    1.4670   26.2360   12.3920 H   0  0  0  0  0  0  0  0  0  0  0  0
   -0.6582   28.7219   13.9387 H   0  0  0  0  0  0  0  0  0  0  0  0
   -1.6701   28.8205   12.4237 H   0  0  0  0  0  0  0  0  0  0  0  0
   -4.5110   25.3030   13.3770 H   0  0  0  0  0  0  0  0  0  0  0  0
   -2.2993   23.7506   16.0432 H   0  0  0  0  0  0  0  0  0  0  0  0
   -3.1105   23.3540   14.4903 H   0  0  0  0  0  0  0  0  0  0  0  0
   -1.4241   23.9725   14.4903 H   0  0  0  0  0  0  0  0  0  0  0  0
   -3.2661   25.6111   17.0190 H   0  0  0  0  0  0  0  0  0  0  0  0
   -4.0168   26.9224   16.0476 H   0  0  0  0  0  0  0  0  0  0  0  0
   -4.7399   25.2780   16.0476 H   0  0  0  0  0  0  0  0  0  0  0  0
   -0.9352   30.1791    9.2101 H   0  0  0  0  0  0  0  0  0  0  0  0
   -0.3189   31.9761    7.5654 H   0  0  0  0  0  0  0  0  0  0  0  0
    1.9512   32.0295    6.5360 H   0  0  0  0  0  0  0  0  0  0  0  0
    3.6543   30.2708    7.1068 H   0  0  0  0  0  0  0  0  0  0  0  0
  1  2  1  0
  2  3  1  0
  2  4  1  0
  4  5  1  0
  5  6  2  0
  5  7  1  0
  7  8  1  0
  8  9  1  0
  9 10  1  0
  9 11  1  0
 11 12  1  0
 12 13  1  0
 13 14  2  0
 13 15  1  0
 15 16  1  0
 16 17  1  0
 17 18  1  0
 17 19  1  0
 19 20  1  0
 20 21  1  0
 21 22  2  0
 21 23  1  0
 23 24  1  0
 24 25  1  0
 24 26  1  0
 24 27  1  0
 27 28  2  0
 15 29  1  0
 29 30  2  0
 30 31  1  0
 31 32  2  0
 32 33  1  0
 33 34  2  0
  7 35  1  0
 35 36  2  0
 35  2  1  0
 34 12  1  0
 27 20  1  0
 34 29  1  0
  1 37  1  0
  1 38  1  0
  1 39  1  0
  3 40  1  0
  3 41  1  0
  3 42  1  0
  4 43  1  0
  8 44  1  0
  8 45  1  0
  9 46  1  6
 10 47  1  0
 11 48  1  0
 11 49  1  0
 16 50  1  0
 16 51  1  0
 17 52  1  6
 18 53  1  0
 19 54  1  0
 19 55  1  0
 23 56  1  0
 25 57  1  0
 25 58  1  0
 25 59  1  0
 26 60  1  0
 26 61  1  0
 26 62  1  0
 30 63  1  0
 31 64  1  0
 32 65  1  0
 33 66  1  0
M  END
>  <vina_affinity>  (63) 
-8.769

$$$$
dec_C39330575
     RDKit          3D

 45 48  0  0  0  0  0  0  0  0999 V2000
    1.5410   31.3730    7.2910 C   0  0  0  0  0  0  0  0  0  0  0  0
    0.3890   31.0920    8.2110 C   0  0  0  0  0  0  0  0  0  0  0  0
   -0.4820   32.1210    8.5830 C   0  0  0  0  0  0  0  0  0  0  0  0
   -1.5470   31.8940    9.4620 C   0  0  0  0  0  0  0  0  0  0  0  0
   -1.7050   30.5990    9.9690 C   0  0  0  0  0  0  0  0  0  0  0  0
   -2.6470   30.0970   10.8360 N   0  0  0  0  0  0  0  0  0  0  0  0
   -2.4150   28.7690   11.0700 C   0  0  0  0  0  0  0  0  0  0  0  0
   -1.3040   28.3880   10.3430 C   0  0  0  0  0  0  0  0  0  0  0  0
   -0.6930   27.0220   10.3120 C   0  0  0  0  0  0  0  0  0  0  0  0
   -1.7290   25.9250   10.5840 C   0  0  0  0  0  0  0  0  0  0  0  0
   -1.5200   25.2020   11.8390 N   0  0  0  0  0  0  0  0  0  0  0  0
   -0.6610   24.1110   11.8450 C   0  0  0  0  0  0  0  0  0  0  0  0
   -0.0360   23.7330   10.8580 O   0  0  0  0  0  0  0  0  0  0  0  0
   -0.5420   23.3730   13.1210 C   0  0  0  0  0  0  0  0  0  0  0  0
    0.3670   22.3170   13.2500 C   0  0  0  0  0  0  0  0  0  0  0  0
    0.4110   21.5860   14.4360 C   0  0  0  0  0  0  0  0  0  0  0  0
   -0.4640   21.9000   15.4750 C   0  0  0  0  0  0  0  0  0  0  0  0
   -1.3730   22.9540   15.3360 C   0  0  0  0  0  0  0  0  0  0  0  0
   -1.3960   23.7270   14.1700 C   0  0  0  0  0  0  0  0  0  0  0  0
   -2.3490   24.7440   14.0150 N   0  0  0  0  0  0  0  0  0  0  0  0
   -1.9820   25.7960   13.0770 C   0  0  1  0  0  0  0  0  0  0  0  0
   -0.9740   26.7560   13.7120 C   0  0  0  0  0  0  0  0  0  0  0  0
   -0.8500   29.5490    9.6380 C   0  0  0  0  0  0  0  0  0  0  0  0
    0.2160   29.8050    8.7480 C   0  0  0  0  0  0  0  0  0  0  0  0
    2.4401   31.5923    7.8856 H   0  0  0  0  0  0  0  0  0  0  0  0
    1.7265   30.4938    6.6565 H   0  0  0  0  0  0  0  0  0  0  0  0
    1.3008   32.2389    6.6565 H   0  0  0  0  0  0  0  0  0  0  0  0
   -0.3265   33.1309    8.1757 H   0  0  0  0  0  0  0  0  0  0  0  0
   -2.2353   32.7043    9.7443 H   0  0  0  0  0  0  0  0  0  0  0  0
   -3.3990   30.6360   11.2420 H   0  0  0  0  0  0  0  0  0  0  0  0
   -3.0111   28.1165   11.7249 H   0  0  0  0  0  0  0  0  0  0  0  0
   -0.2491   26.8536    9.3197 H   0  0  0  0  0  0  0  0  0  0  0  0
    0.0707   26.9726   11.1021 H   0  0  0  0  0  0  0  0  0  0  0  0
   -2.7249   26.3910   10.6158 H   0  0  0  0  0  0  0  0  0  0  0  0
   -1.6298   25.1878    9.7736 H   0  0  0  0  0  0  0  0  0  0  0  0
    1.0433   22.0651   12.4198 H   0  0  0  0  0  0  0  0  0  0  0  0
    1.1333   20.7645   14.5517 H   0  0  0  0  0  0  0  0  0  0  0  0
   -0.4394   21.3168   16.4074 H   0  0  0  0  0  0  0  0  0  0  0  0
   -2.0767   23.1774   16.1514 H   0  0  0  0  0  0  0  0  0  0  0  0
   -2.6850   25.1030   14.9020 H   0  0  0  0  0  0  0  0  0  0  0  0
   -2.8618   26.4080   12.8290 H   0  0  0  0  0  0  0  0  0  0  0  0
   -1.0441   26.6892   14.8077 H   0  0  0  0  0  0  0  0  0  0  0  0
    0.0428   26.4841   13.3924 H   0  0  0  0  0  0  0  0  0  0  0  0
   -1.1960   27.7849   13.3924 H   0  0  0  0  0  0  0  0  0  0  0  0
    0.9109   28.9971    8.4751 H   0  0  0  0  0  0  0  0  0  0  0  0
  1  2  1  0
  2  3  2  0
  3  4  1  0
  4  5  2  0
  5  6  1  0
  6  7  1  0
  7  8  2  0
  8  9  1  0
  9 10  1  0
 10 11  1  0
 11 12  1  0
 12 13  2  0
 12 14  1  0
 14 15  2  0
 15 16  1  0
 16 17  2  0
 17 18  1  0
 18 19  2  0
 19 20  1  0
 20 21  1  0
 21 22  1  0
  8 23  1  0
 23 24  2  0
 24  2  1  0
 23  5  1  0
 21 11  1  0
 19 14  1  0
  1 25  1  0
  1 26  1  0
  1 27  1  0
  3 28  1  0
  4 29  1  0
  6 30  1  0
  7 31  1  0
  9 32  1  0
  9 33  1  0
 10 34  1  0
 10 35  1  0
 15 36  1  0
 16 37  1  0
 17 38  1  0
 18 39  1  0
 20 40  1  0
 21 41  1  6
 22 42  1  0
 22 43  1  0
 22 44  1  0
 24 45  1  0
M  END
>  <vina_affinity>  (64) 
-9.099

$$$$
dec_C51580404
     RDKit          3D

 36 37  0  0  0  0  0  0  0  0999 V2000
   -1.1060   27.0700   14.5610 C   0  0  0  0  0  0  0  0  0  0  0  0
   -0.4310   27.5810   13.4200 O   0  0  0  0  0  0  0  0  0  0  0  0
   -0.6780   26.9700   12.2180 C   0  0  0  0  0  0  0  0  0  0  0  0
   -0.9250   25.6050   12.0440 C   0  0  0  0  0  0  0  0  0  0  0  0
   -1.1610   25.0860   10.7670 C   0  0  0  0  0  0  0  0  0  0  0  0
   -1.1460   25.9220    9.6520 C   0  0  0  0  0  0  0  0  0  0  0  0
   -0.9040   27.2840    9.8110 C   0  0  0  0  0  0  0  0  0  0  0  0
   -0.6900   27.8080   11.0910 C   0  0  0  0  0  0  0  0  0  0  0  0
   -0.4070   29.1490   11.2680 O   0  0  0  0  0  0  0  0  0  0  0  0
    0.0050   29.8430   10.1470 C   0  0  0  0  0  0  0  0  0  0  0  0
    1.0970   29.3630    9.4050 C   0  0  0  0  0  0  0  0  0  0  0  0
    1.5120   30.0140    8.2390 C   0  0  0  0  0  0  0  0  0  0  0  0
    2.6650   29.4810    7.4410 C   0  0  0  0  0  0  0  0  0  0  0  0
    0.7940   31.1270    7.7940 C   0  0  0  0  0  0  0  0  0  0  0  0
   -0.3090   31.5930    8.5170 C   0  0  0  0  0  0  0  0  0  0  0  0
   -0.7210   30.9570    9.6990 C   0  0  0  0  0  0  0  0  0  0  0  0
   -1.9180   31.5110   10.4240 C   0  0  0  0  0  0  0  0  0  0  0  0
   -3.0840   30.7890   10.5020 N   0  0  0  0  0  0  0  0  0  0  0  0
   -1.8200   32.6920   10.9760 N   0  0  0  0  0  0  0  0  0  0  0  0
   -3.0290   33.0680   11.5860 O   0  0  0  0  0  0  0  0  0  0  0  0
   -0.6162   27.4408   15.4734 H   0  0  0  0  0  0  0  0  0  0  0  0
   -2.1543   27.4029   14.5465 H   0  0  0  0  0  0  0  0  0  0  0  0
   -1.0701   25.9707   14.5465 H   0  0  0  0  0  0  0  0  0  0  0  0
   -0.9338   24.9353   12.9166 H   0  0  0  0  0  0  0  0  0  0  0  0
   -1.3597   24.0114   10.6418 H   0  0  0  0  0  0  0  0  0  0  0  0
   -1.3248   25.5070    8.6491 H   0  0  0  0  0  0  0  0  0  0  0  0
   -0.8811   27.9463    8.9330 H   0  0  0  0  0  0  0  0  0  0  0  0
    1.6321   28.4642    9.7453 H   0  0  0  0  0  0  0  0  0  0  0  0
    3.4476   29.1192    8.1241 H   0  0  0  0  0  0  0  0  0  0  0  0
    2.3196   28.6512    6.8069 H   0  0  0  0  0  0  0  0  0  0  0  0
    3.0733   30.2817    6.8069 H   0  0  0  0  0  0  0  0  0  0  0  0
    1.0980   31.6398    6.8696 H   0  0  0  0  0  0  0  0  0  0  0  0
   -0.8624   32.4716    8.1538 H   0  0  0  0  0  0  0  0  0  0  0  0
   -3.8510   31.3890   10.7890 H   0  0  0  0  0  0  0  0  0  0  0  0
   -3.3020   30.2240    9.6880 H   0  0  0  0  0  0  0  0  0  0  0  0
   -3.2330   32.2840   12.1270 H   0  0  0  0  0  0  0  0  0  0  0  0
  1  2  1  0
  2  3  1  0
  3  4  2  0
  4  5  1  0
  5  6  2  0
  6  7  1  0
  7  8  2  0
  8  9  1  0
  9 10  1  0
 10 11  2  0
 11 12  1  0
 12 13  1  0
 12 14  2  0
 14 15  1  0
 15 16  2  0
 16 17  1  0
 17 18  1  0
 17 19  2  0
 19 20  1  0
  8  3  1  0
 16 10  1  0
  1 21  1  0
  1 22  1  0
  1 23  1  0
  4 24  1  0
  5 25  1  0
  6 26  1  0
  7 27  1  0
 11 28  1  0
 13 29  1  0
 13 30  1  0
 13 31  1  0
 14 32  1  0
 15 33  1  0
 18 34  1  0
 18 35  1  0
 20 36  1  0
M  END
>  <vina_affinity>  (65) 
-7.579

$$$$
act_342729
     RDKit          3D

 89 92  0  0  0  0  0  0  0  0999 V2000
   -0.4000   22.9170   15.2880 C   0  0  0  0  0  0  0  0  0  0  0  0
   -0.6360   23.2070   13.8030 C   0  0  0  0  0  0  0  0  0  0  0  0
   -1.5400   24.4320   13.6540 C   0  0  0  0  0  0  0  0  0  0  0  0
    0.7180   23.3860   13.0880 C   0  0  0  0  0  0  0  0  0  0  0  0
    0.6130   23.7380   11.5970 C   0  0  2  0  0  0  0  0  0  0  0  0
    1.4600   22.8700   10.7850 N   0  0  0  0  0  0  0  0  0  0  0  0
    0.9990   21.6380   10.3690 C   0  0  0  0  0  0  0  0  0  0  0  0
   -0.0150   21.1110   10.8290 O   0  0  0  0  0  0  0  0  0  0  0  0
    1.8600   20.9540    9.2890 C   0  0  2  0  0  0  0  0  0  0  0  0
    2.3220   19.5780    9.7530 C   0  0  0  0  0  0  0  0  0  0  0  0
    3.0000   21.8220    9.0160 N   0  0  0  0  0  0  0  0  0  0  0  0
    3.6500   21.8120    7.8050 C   0  0  0  0  0  0  0  0  0  0  0  0
    3.3460   21.0520    6.8910 O   0  0  0  0  0  0  0  0  0  0  0  0
    4.7440   22.8060    7.6260 C   0  0  0  0  0  0  0  0  0  0  0  0
    5.9840   22.3520    7.1620 C   0  0  0  0  0  0  0  0  0  0  0  0
    7.0410   23.2460    6.9810 C   0  0  0  0  0  0  0  0  0  0  0  0
    6.8810   24.6060    7.2740 C   0  0  0  0  0  0  0  0  0  0  0  0
    8.0250   25.5740    7.0810 C   0  0  0  0  0  0  0  0  0  0  0  0
    9.2100   25.0840    6.2240 C   0  0  0  0  0  0  0  0  0  0  0  0
    9.7060   26.1270    5.2110 C   0  0  0  0  0  0  0  0  0  0  0  0
   10.8580   25.5690    4.3730 C   0  0  0  0  0  0  0  0  0  0  0  0
   11.9650   25.1030    5.2100 N   0  0  0  0  0  0  0  0  0  0  0  0
   11.5200   24.0670    6.1450 C   0  0  0  0  0  0  0  0  0  0  0  0
   10.3950   24.5660    7.0530 C   0  0  0  0  0  0  0  0  0  0  0  0
    5.6400   25.0550    7.7460 C   0  0  0  0  0  0  0  0  0  0  0  0
    4.5790   24.1630    7.9270 C   0  0  0  0  0  0  0  0  0  0  0  0
    1.1000   25.1870   11.3810 C   0  0  0  0  0  0  0  0  0  0  0  0
    2.2930   25.4870   11.4070 O   0  0  0  0  0  0  0  0  0  0  0  0
    0.0880   26.1100   11.2150 N   0  0  0  0  0  0  0  0  0  0  0  0
    0.3540   27.5500   11.1310 C   0  0  2  0  0  0  0  0  0  0  0  0
   -0.1320   28.2400   12.4140 C   0  0  0  0  0  0  0  0  0  0  0  0
   -1.6540   28.2120   12.5680 C   0  0  0  0  0  0  0  0  0  0  0  0
   -2.4090   28.3490   11.2460 C   0  0  0  0  0  0  0  0  0  0  0  0
   -1.5590   29.0030   10.1650 C   0  0  0  0  0  0  0  0  0  0  0  0
   -0.3040   28.1590    9.8560 C   0  0  1  0  0  0  0  0  0  0  0  0
    0.6890   28.9470    9.0100 C   0  0  0  0  0  0  0  0  0  0  0  0
    0.2360   30.0110    8.2120 C   0  0  0  0  0  0  0  0  0  0  0  0
    1.1270   30.7440    7.4250 C   0  0  0  0  0  0  0  0  0  0  0  0
    2.4830   30.4270    7.4230 C   0  0  0  0  0  0  0  0  0  0  0  0
    2.9430   29.3740    8.2080 C   0  0  0  0  0  0  0  0  0  0  0  0
    4.6180   28.9780    8.2100 Cl  0  0  0  0  0  0  0  0  0  0  0  0
    2.0580   28.6360    8.9970 C   0  0  0  0  0  0  0  0  0  0  0  0
   -0.9783   23.6276   15.8968 H   0  0  0  0  0  0  0  0  0  0  0  0
   -0.7227   21.8906   15.5170 H   0  0  0  0  0  0  0  0  0  0  0  0
    0.6705   23.0244   15.5170 H   0  0  0  0  0  0  0  0  0  0  0  0
   -1.1504   22.3592   13.3269 H   0  0  0  0  0  0  0  0  0  0  0  0
   -1.8167   24.8069   14.6504 H   0  0  0  0  0  0  0  0  0  0  0  0
   -1.0040   25.2183   13.1022 H   0  0  0  0  0  0  0  0  0  0  0  0
   -2.4494   24.1517   13.1022 H   0  0  0  0  0  0  0  0  0  0  0  0
    1.2684   24.1935   13.5930 H   0  0  0  0  0  0  0  0  0  0  0  0
    1.2301   22.4140   13.1431 H   0  0  0  0  0  0  0  0  0  0  0  0
   -0.4381   23.6130   11.2975 H   0  0  0  0  0  0  0  0  0  0  0  0
    2.0800   23.3600   10.1480 H   0  0  0  0  0  0  0  0  0  0  0  0
    1.2707   20.8018    8.3727 H   0  0  0  0  0  0  0  0  0  0  0  0
    2.3327   19.5463   10.8525 H   0  0  0  0  0  0  0  0  0  0  0  0
    1.6320   18.8114    9.3707 H   0  0  0  0  0  0  0  0  0  0  0  0
    3.3349   19.3831    9.3707 H   0  0  0  0  0  0  0  0  0  0  0  0
    3.1390   22.5840    9.6720 H   0  0  0  0  0  0  0  0  0  0  0  0
    6.1266   21.2844    6.9386 H   0  0  0  0  0  0  0  0  0  0  0  0
    8.0075   22.8790    6.6051 H   0  0  0  0  0  0  0  0  0  0  0  0
    7.6196   26.4781    6.6033 H   0  0  0  0  0  0  0  0  0  0  0  0
    8.4418   25.7331    8.0865 H   0  0  0  0  0  0  0  0  0  0  0  0
    8.7907   24.2357    5.6632 H   0  0  0  0  0  0  0  0  0  0  0  0
    8.8765   26.4040    4.5438 H   0  0  0  0  0  0  0  0  0  0  0  0
   10.0666   27.0083    5.7618 H   0  0  0  0  0  0  0  0  0  0  0  0
   10.4857   24.7253    3.7734 H   0  0  0  0  0  0  0  0  0  0  0  0
   11.2341   26.3773    3.7287 H   0  0  0  0  0  0  0  0  0  0  0  0
   12.3260   25.8930    5.7450 H   0  0  0  0  0  0  0  0  0  0  0  0
   11.1569   23.2017    5.5711 H   0  0  0  0  0  0  0  0  0  0  0  0
   12.3744   23.7901    6.7801 H   0  0  0  0  0  0  0  0  0  0  0  0
   10.0533   23.7378    7.6912 H   0  0  0  0  0  0  0  0  0  0  0  0
   10.7807   25.3919    7.6687 H   0  0  0  0  0  0  0  0  0  0  0  0
    5.4993   26.1213    7.9766 H   0  0  0  0  0  0  0  0  0  0  0  0
    3.6132   24.5280    8.3065 H   0  0  0  0  0  0  0  0  0  0  0  0
   -0.8690   25.8030   11.3410 H   0  0  0  0  0  0  0  0  0  0  0  0
    1.4377   27.7169   11.0430 H   0  0  0  0  0  0  0  0  0  0  0  0
    0.3173   27.7292   13.2785 H   0  0  0  0  0  0  0  0  0  0  0  0
    0.1735   29.2951   12.3562 H   0  0  0  0  0  0  0  0  0  0  0  0
   -1.9383   27.2564   13.0327 H   0  0  0  0  0  0  0  0  0  0  0  0
   -1.9301   29.0786   13.1866 H   0  0  0  0  0  0  0  0  0  0  0  0
   -2.7090   27.3476   10.9037 H   0  0  0  0  0  0  0  0  0  0  0  0
   -3.2852   28.9904   11.4217 H   0  0  0  0  0  0  0  0  0  0  0  0
   -2.1588   29.1032    9.2484 H   0  0  0  0  0  0  0  0  0  0  0  0
   -1.2350   29.9903   10.5259 H   0  0  0  0  0  0  0  0  0  0  0  0
   -0.6384   27.2956    9.2620 H   0  0  0  0  0  0  0  0  0  0  0  0
   -0.8331   30.2698    8.2070 H   0  0  0  0  0  0  0  0  0  0  0  0
    0.7567   31.5738    6.8051 H   0  0  0  0  0  0  0  0  0  0  0  0
    3.1858   31.0051    6.8050 H   0  0  0  0  0  0  0  0  0  0  0  0
    2.4359   27.8060    9.6120 H   0  0  0  0  0  0  0  0  0  0  0  0
  1  2  1  0
  2  3  1  0
  2  4  1  0
  4  5  1  0
  5  6  1  0
  6  7  1  0
  7  8  2  0
  7  9  1  0
  9 10  1  0
  9 11  1  0
 11 12  1  0
 12 13  2  0
 12 14  1  0
 14 15  2  0
 15 16  1  0
 16 17  2  0
 17 18  1  0
 18 19  1  0
 19 20  1  0
 20 21  1  0
 21 22  1  0
 22 23  1  0
 23 24  1  0
 17 25  1  0
 25 26  2  0
  5 27  1  0
 27 28  2  0
 27 29  1  0
 29 30  1  0
 30 31  1  0
 31 32  1  0
 32 33  1  0
 33 34  1  0
 34 35  1  0
 35 36  1  0
 36 37  2  0
 37 38  1  0
 38 39  2  0
 39 40  1  0
 40 41  1  0
 40 42  2  0
 26 14  1  0
 35 30  1  0
 42 36  1  0
 24 19  1  0
  1 43  1  0
  1 44  1  0
  1 45  1  0
  2 46  1  0
  3 47  1  0
  3 48  1  0
  3 49  1  0
  4 50  1  0
  4 51  1  0
  5 52  1  6
  6 53  1  0
  9 54  1  6
 10 55  1  0
 10 56  1  0
 10 57  1  0
 11 58  1  0
 15 59  1  0
 16 60  1  0
 18 61  1  0
 18 62  1  0
 19 63  1  0
 20 64  1  0
 20 65  1  0
 21 66  1  0
 21 67  1  0
 22 68  1  0
 23 69  1  0
 23 70  1  0
 24 71  1  0
 24 72  1  0
 25 73  1  0
 26 74  1  0
 29 75  1  0
 30 76  1  6
 31 77  1  0
 31 78  1  0
 32 79  1  0
 32 80  1  0
 33 81  1  0
 33 82  1  0
 34 83  1  0
 34 84  1  0
 35 85  1  6
 37 86  1  0
 38 87  1  0
 39 88  1  0
 42 89  1  0
M  END
>  <vina_affinity>  (66) 
-8.861

$$$$
dec_C35285002
     RDKit          3D

 39 40  0  0  0  0  0  0  0  0999 V2000
    2.6050   27.0510   10.5990 N   0  0  0  0  0  0  0  0  0  0  0  0
    2.1750   25.8510   10.9090 C   0  0  0  0  0  0  0  0  0  0  0  0
    2.6160   25.1940   11.9610 N   0  0  0  0  0  0  0  0  0  0  0  0
    1.1290   25.2210   10.0600 C   0  0  0  0  0  0  0  0  0  0  0  0
   -0.1610   24.9180   10.8340 C   0  0  0  0  0  0  0  0  0  0  0  0
   -0.8070   26.1490   11.3670 N   0  0  0  0  0  0  0  0  0  0  0  0
   -1.8200   26.7500   10.4400 C   0  0  0  0  0  0  0  0  0  0  0  0
   -1.5530   28.1930   10.0830 C   0  0  0  0  0  0  0  0  0  0  0  0
   -0.4160   28.5620    9.3500 C   0  0  0  0  0  0  0  0  0  0  0  0
   -0.1840   29.9040    9.0310 C   0  0  0  0  0  0  0  0  0  0  0  0
   -1.0900   30.8820    9.4390 C   0  0  0  0  0  0  0  0  0  0  0  0
   -0.7700   32.6930    9.0090 Br  0  0  0  0  0  0  0  0  0  0  0  0
   -2.2250   30.5340   10.1640 C   0  0  0  0  0  0  0  0  0  0  0  0
   -2.4440   29.1970   10.4770 C   0  0  0  0  0  0  0  0  0  0  0  0
   -3.5340   28.8730   11.1880 F   0  0  0  0  0  0  0  0  0  0  0  0
   -1.2450   26.1550   12.7110 C   0  0  0  0  0  0  0  0  0  0  0  0
   -2.6080   25.9390   12.9830 C   0  0  0  0  0  0  0  0  0  0  0  0
   -3.1030   25.9440   14.2900 C   0  0  0  0  0  0  0  0  0  0  0  0
   -2.2410   26.1630   15.3580 C   0  0  0  0  0  0  0  0  0  0  0  0
   -0.8870   26.3730   15.1160 C   0  0  0  0  0  0  0  0  0  0  0  0
   -0.3950   26.3690   13.8060 C   0  0  0  0  0  0  0  0  0  0  0  0
    2.2120   27.4880    9.7560 H   0  0  0  0  0  0  0  0  0  0  0  0
    3.2950   27.5640   11.1270 H   0  0  0  0  0  0  0  0  0  0  0  0
    2.2550   24.2740   12.1970 H   0  0  0  0  0  0  0  0  0  0  0  0
    3.3170   25.5820   12.5800 H   0  0  0  0  0  0  0  0  0  0  0  0
    0.8898   25.9042    9.2317 H   0  0  0  0  0  0  0  0  0  0  0  0
    1.5298   24.2635    9.6958 H   0  0  0  0  0  0  0  0  0  0  0  0
   -0.8673   24.4127   10.1589 H   0  0  0  0  0  0  0  0  0  0  0  0
    0.1043   24.2813   11.6908 H   0  0  0  0  0  0  0  0  0  0  0  0
   -1.8299   26.1609    9.5111 H   0  0  0  0  0  0  0  0  0  0  0  0
   -2.7844   26.7283   10.9686 H   0  0  0  0  0  0  0  0  0  0  0  0
    0.2979   27.7913    9.0238 H   0  0  0  0  0  0  0  0  0  0  0  0
    0.7119   30.1873    8.4591 H   0  0  0  0  0  0  0  0  0  0  0  0
   -2.9396   31.3060   10.4854 H   0  0  0  0  0  0  0  0  0  0  0  0
   -3.3008   25.7619   12.1471 H   0  0  0  0  0  0  0  0  0  0  0  0
   -4.1743   25.7747   14.4733 H   0  0  0  0  0  0  0  0  0  0  0  0
   -2.6268   26.1703   16.3881 H   0  0  0  0  0  0  0  0  0  0  0  0
   -0.2002   26.5429   15.9583 H   0  0  0  0  0  0  0  0  0  0  0  0
    0.6781   26.5368   13.6318 H   0  0  0  0  0  0  0  0  0  0  0  0
  1  2  1  0
  2  3  2  0
  2  4  1  0
  4  5  1  0
  5  6  1  0
  6  7  1  0
  7  8  1  0
  8  9  2  0
  9 10  1  0
 10 11  2  0
 11 12  1  0
 11 13  1  0
 13 14  2  0
 14 15  1  0
  6 16  1  0
 16 17  2  0
 17 18  1  0
 18 19  2  0
 19 20  1  0
 20 21  2  0
 14  8  1  0
 21 16  1  0
  1 22  1  0
  1 23  1  0
  3 24  1  0
  3 25  1  0
  4 26  1  0
  4 27  1  0
  5 28  1  0
  5 29  1  0
  7 30  1  0
  7 31  1  0
  9 32  1  0
 10 33  1  0
 13 34  1  0
 17 35  1  0
 18 36  1  0
 19 37  1  0
 20 38  1  0
 21 39  1  0
M  CHG  1   3   1
M  END
>  <vina_affinity>  (67) 
-7.077

$$$$
dec_C08285437
     RDKit          3D

 53 56  0  0  0  0  0  0  0  0999 V2000
   -3.4840   30.4410    9.7280 C   0  0  0  0  0  0  0  0  0  0  0  0
   -2.0690   30.3920   10.3110 C   0  0  1  0  0  0  0  0  0  0  0  0
   -1.7340   29.0510   10.7640 N   0  0  0  0  0  0  0  0  0  0  0  0
   -1.1120   28.8240   11.9740 C   0  0  0  0  0  0  0  0  0  0  0  0
   -0.7690   29.7330   12.7270 O   0  0  0  0  0  0  0  0  0  0  0  0
   -0.8820   27.3410   12.2730 C   0  0  0  0  0  0  0  0  0  0  0  0
   -1.8940   26.8610   13.1800 N   0  0  0  0  0  0  0  0  0  0  0  0
   -3.2020   26.6930   12.8490 C   0  0  0  0  0  0  0  0  0  0  0  0
   -3.7360   26.9750   11.7900 O   0  0  0  0  0  0  0  0  0  0  0  0
   -3.8570   26.1320   13.9190 N   0  0  0  0  0  0  0  0  0  0  0  0
   -2.9640   25.8220   15.0190 C   0  0  1  0  0  0  0  0  0  0  0  0
   -3.3100   26.7220   16.2120 C   0  0  0  0  0  0  0  0  0  0  0  0
   -2.9490   24.3200   15.2850 C   0  0  0  0  0  0  0  0  0  0  0  0
   -1.8150   23.5550   14.9550 C   0  0  0  0  0  0  0  0  0  0  0  0
   -1.7790   22.1750   15.1750 C   0  0  0  0  0  0  0  0  0  0  0  0
   -2.8780   21.5090   15.7280 C   0  0  0  0  0  0  0  0  0  0  0  0
   -2.8570   20.1230   15.9530 C   0  0  0  0  0  0  0  0  0  0  0  0
   -3.9630   19.4730   16.5050 C   0  0  0  0  0  0  0  0  0  0  0  0
   -5.1000   20.2010   16.8360 C   0  0  0  0  0  0  0  0  0  0  0  0
   -5.1350   21.5800   16.6170 C   0  0  0  0  0  0  0  0  0  0  0  0
   -4.0310   22.2490   16.0630 C   0  0  0  0  0  0  0  0  0  0  0  0
   -4.0500   23.6390   15.8360 C   0  0  0  0  0  0  0  0  0  0  0  0
   -1.6350   26.3420   14.4200 C   0  0  0  0  0  0  0  0  0  0  0  0
   -0.5380   26.3190   14.9640 O   0  0  0  0  0  0  0  0  0  0  0  0
   -0.9980   30.8710    9.3460 C   0  0  0  0  0  0  0  0  0  0  0  0
   -0.2440   29.9230    8.6310 C   0  0  0  0  0  0  0  0  0  0  0  0
    0.7290   30.3260    7.7160 C   0  0  0  0  0  0  0  0  0  0  0  0
    0.9470   31.6800    7.5010 C   0  0  0  0  0  0  0  0  0  0  0  0
    1.8780   32.0680    6.6200 F   0  0  0  0  0  0  0  0  0  0  0  0
    0.2050   32.6380    8.1810 C   0  0  0  0  0  0  0  0  0  0  0  0
   -0.7690   32.2360    9.0970 C   0  0  0  0  0  0  0  0  0  0  0  0
   -4.2175   30.4664   10.5474 H   0  0  0  0  0  0  0  0  0  0  0  0
   -3.5944   31.3435    9.1089 H   0  0  0  0  0  0  0  0  0  0  0  0
   -3.6566   29.5483    9.1089 H   0  0  0  0  0  0  0  0  0  0  0  0
   -2.0826   31.0872   11.1634 H   0  0  0  0  0  0  0  0  0  0  0  0
   -2.0590   28.2700   10.2090 H   0  0  0  0  0  0  0  0  0  0  0  0
   -0.9311   26.7679   11.3353 H   0  0  0  0  0  0  0  0  0  0  0  0
    0.1082   27.2139   12.7349 H   0  0  0  0  0  0  0  0  0  0  0  0
   -4.8070   25.7980   13.8290 H   0  0  0  0  0  0  0  0  0  0  0  0
   -3.1033   26.1843   17.1491 H   0  0  0  0  0  0  0  0  0  0  0  0
   -2.6991   27.6359   16.1712 H   0  0  0  0  0  0  0  0  0  0  0  0
   -4.3758   26.9913   16.1712 H   0  0  0  0  0  0  0  0  0  0  0  0
   -0.9387   24.0532   14.5148 H   0  0  0  0  0  0  0  0  0  0  0  0
   -0.8757   21.6059   14.9101 H   0  0  0  0  0  0  0  0  0  0  0  0
   -1.9596   19.5430   15.6916 H   0  0  0  0  0  0  0  0  0  0  0  0
   -3.9344   18.3870   16.6775 H   0  0  0  0  0  0  0  0  0  0  0  0
   -5.9724   19.6909   17.2705 H   0  0  0  0  0  0  0  0  0  0  0  0
   -6.0383   22.1492   16.8816 H   0  0  0  0  0  0  0  0  0  0  0  0
   -4.9533   24.2096   16.0975 H   0  0  0  0  0  0  0  0  0  0  0  0
   -0.4238   28.8503    8.7954 H   0  0  0  0  0  0  0  0  0  0  0  0
    1.3192   29.5762    7.1688 H   0  0  0  0  0  0  0  0  0  0  0  0
    0.3841   33.7079    7.9985 H   0  0  0  0  0  0  0  0  0  0  0  0
   -1.3628   32.9940    9.6288 H   0  0  0  0  0  0  0  0  0  0  0  0
  1  2  1  0
  2  3  1  0
  3  4  1  0
  4  5  2  0
  4  6  1  0
  6  7  1  0
  7  8  1  0
  8  9  2  0
  8 10  1  0
 10 11  1  0
 11 12  1  1
 11 13  1  0
 13 14  2  0
 14 15  1  0
 15 16  2  0
 16 17  1  0
 17 18  2  0
 18 19  1  0
 19 20  2  0
 20 21  1  0
 21 22  2  0
 11 23  1  0
 23 24  2  0
  2 25  1  0
 25 26  2  0
 26 27  1  0
 27 28  2  0
 28 29  1  0
 28 30  1  0
 30 31  2  0
 23  7  1  0
 31 25  1  0
 22 13  1  0
 21 16  1  0
  1 32  1  0
  1 33  1  0
  1 34  1  0
  2 35  1  1
  3 36  1  0
  6 37  1  0
  6 38  1  0
 10 39  1  0
 12 40  1  0
 12 41  1  0
 12 42  1  0
 14 43  1  0
 15 44  1  0
 17 45  1  0
 18 46  1  0
 19 47  1  0
 20 48  1  0
 22 49  1  0
 26 50  1  0
 27 51  1  0
 30 52  1  0
 31 53  1  0
M  END
>  <vina_affinity>  (68) 
-9.756

$$$$
dec_C16577724
     RDKit          3D

 66 68  0  0  0  0  0  0  0  0999 V2000
    0.5080   21.4270   13.4420 C   0  0  0  0  0  0  0  0  0  0  0  0
    0.4680   22.6750   12.5340 C   0  0  0  0  0  0  0  0  0  0  0  0
    0.3260   22.1670   11.0820 C   0  0  0  0  0  0  0  0  0  0  0  0
    1.7870   23.4510   12.7100 C   0  0  0  0  0  0  0  0  0  0  0  0
    1.8430   24.8080   11.9930 C   0  0  1  0  0  0  0  0  0  0  0  0
    2.6020   24.7000   10.7490 N   0  0  0  0  0  0  0  0  0  0  0  0
    2.8650   25.8200    9.9810 C   0  0  0  0  0  0  0  0  0  0  0  0
    2.5340   26.9480   10.3190 O   0  0  0  0  0  0  0  0  0  0  0  0
    3.5510   25.4690    8.8370 N   0  0  0  0  0  0  0  0  0  0  0  0
    3.9270   26.3090    7.7700 C   0  0  0  0  0  0  0  0  0  0  0  0
    4.1100   27.6900    7.8970 C   0  0  0  0  0  0  0  0  0  0  0  0
    4.4770   28.4700    6.7930 C   0  0  0  0  0  0  0  0  0  0  0  0
    4.6610   27.8770    5.5460 C   0  0  0  0  0  0  0  0  0  0  0  0
    4.4720   26.4980    5.4130 C   0  0  0  0  0  0  0  0  0  0  0  0
    4.6590   25.8620    4.1030 N   0  0  0  0  0  0  0  0  0  0  0  0
    5.4110   26.4200    3.2910 O   0  0  0  0  0  0  0  0  0  0  0  0
    4.0510   24.8040    3.8860 O   0  0  0  0  0  0  0  0  0  0  0  0
    4.1050   25.7130    6.5170 C   0  0  0  0  0  0  0  0  0  0  0  0
    0.4620   25.4320   11.7320 C   0  0  0  0  0  0  0  0  0  0  0  0
   -0.6050   25.0820   12.7890 C   0  0  1  0  0  0  0  0  0  0  0  0
   -0.2100   25.7050   14.1500 C   0  0  0  0  0  0  0  0  0  0  0  0
   -1.9500   25.7160   12.3300 C   0  0  0  0  0  0  0  0  0  0  0  0
   -1.8200   26.5400   11.1390 N   0  0  0  0  0  0  0  0  0  0  0  0
   -1.5400   27.8900   11.2140 C   0  0  0  0  0  0  0  0  0  0  0  0
   -1.3480   28.4700   12.2730 O   0  0  0  0  0  0  0  0  0  0  0  0
   -1.4860   28.4440    9.9510 N   0  0  0  0  0  0  0  0  0  0  0  0
   -1.2930   29.7990    9.6160 C   0  0  0  0  0  0  0  0  0  0  0  0
   -2.0980   30.8400   10.0900 C   0  0  0  0  0  0  0  0  0  0  0  0
   -1.8550   32.1660    9.7110 C   0  0  0  0  0  0  0  0  0  0  0  0
   -0.8050   32.4680    8.8480 C   0  0  0  0  0  0  0  0  0  0  0  0
   -0.0010   31.4300    8.3660 C   0  0  0  0  0  0  0  0  0  0  0  0
    1.1060   31.7330    7.4520 N   0  0  0  0  0  0  0  0  0  0  0  0
    1.5650   32.8840    7.4610 O   0  0  0  0  0  0  0  0  0  0  0  0
    1.5180   30.8180    6.7240 O   0  0  0  0  0  0  0  0  0  0  0  0
   -0.2420   30.0990    8.7430 C   0  0  0  0  0  0  0  0  0  0  0  0
   -0.7630   23.5400   12.9250 C   0  0  0  0  0  0  0  0  0  0  0  0
    0.4980   21.7402   14.4964 H   0  0  0  0  0  0  0  0  0  0  0  0
   -0.3704   20.7970   13.2383 H   0  0  0  0  0  0  0  0  0  0  0  0
    1.4250   20.8546   13.2383 H   0  0  0  0  0  0  0  0  0  0  0  0
    0.0299   21.1076   11.0915 H   0  0  0  0  0  0  0  0  0  0  0  0
   -0.4415   22.7576   10.5603 H   0  0  0  0  0  0  0  0  0  0  0  0
    1.2885   22.2740   10.5603 H   0  0  0  0  0  0  0  0  0  0  0  0
    1.9385   23.6268   13.7852 H   0  0  0  0  0  0  0  0  0  0  0  0
    2.5720   22.8299   12.2538 H   0  0  0  0  0  0  0  0  0  0  0  0
    2.3588   25.4935   12.6816 H   0  0  0  0  0  0  0  0  0  0  0  0
    2.4790   23.8450   10.2260 H   0  0  0  0  0  0  0  0  0  0  0  0
    3.9440   24.5400    8.8470 H   0  0  0  0  0  0  0  0  0  0  0  0
    3.9639   28.1694    8.8762 H   0  0  0  0  0  0  0  0  0  0  0  0
    4.6204   29.5542    6.9111 H   0  0  0  0  0  0  0  0  0  0  0  0
    4.9513   28.4858    4.6770 H   0  0  0  0  0  0  0  0  0  0  0  0
    3.9574   24.6296    6.3971 H   0  0  0  0  0  0  0  0  0  0  0  0
    0.5774   26.5257   11.7087 H   0  0  0  0  0  0  0  0  0  0  0  0
    0.1058   25.0181   10.7771 H   0  0  0  0  0  0  0  0  0  0  0  0
   -0.6047   25.0825   14.9665 H   0  0  0  0  0  0  0  0  0  0  0  0
    0.8862   25.7567   14.2253 H   0  0  0  0  0  0  0  0  0  0  0  0
   -0.6309   26.7185   14.2253 H   0  0  0  0  0  0  0  0  0  0  0  0
   -2.6636   24.9061   12.1182 H   0  0  0  0  0  0  0  0  0  0  0  0
   -2.2961   26.3708   13.1433 H   0  0  0  0  0  0  0  0  0  0  0  0
   -2.3030   26.2180   10.3150 H   0  0  0  0  0  0  0  0  0  0  0  0
   -1.4520   27.7790    9.1940 H   0  0  0  0  0  0  0  0  0  0  0  0
   -2.9330   30.6141   10.7695 H   0  0  0  0  0  0  0  0  0  0  0  0
   -2.4963   32.9722   10.0967 H   0  0  0  0  0  0  0  0  0  0  0  0
   -0.6104   33.5087    8.5494 H   0  0  0  0  0  0  0  0  0  0  0  0
    0.3956   29.2924    8.3519 H   0  0  0  0  0  0  0  0  0  0  0  0
   -1.0041   23.3210   13.9757 H   0  0  0  0  0  0  0  0  0  0  0  0
   -1.5493   23.2654   12.2064 H   0  0  0  0  0  0  0  0  0  0  0  0
  1  2  1  0
  2  3  1  0
  2  4  1  0
  4  5  1  0
  5  6  1  0
  6  7  1  0
  7  8  2  0
  7  9  1  0
  9 10  1  0
 10 11  2  0
 11 12  1  0
 12 13  2  0
 13 14  1  0
 14 15  1  0
 15 16  2  0
 15 17  1  0
 14 18  2  0
  5 19  1  0
 19 20  1  0
 20 21  1  1
 20 22  1  0
 22 23  1  0
 23 24  1  0
 24 25  2  0
 24 26  1  0
 26 27  1  0
 27 28  2  0
 28 29  1  0
 29 30  2  0
 30 31  1  0
 31 32  1  0
 32 33  2  0
 32 34  1  0
 31 35  2  0
 20 36  1  0
 36  2  1  0
 18 10  1  0
 35 27  1  0
  1 37  1  0
  1 38  1  0
  1 39  1  0
  3 40  1  0
  3 41  1  0
  3 42  1  0
  4 43  1  0
  4 44  1  0
  5 45  1  1
  6 46  1  0
  9 47  1  0
 11 48  1  0
 12 49  1  0
 13 50  1  0
 18 51  1  0
 19 52  1  0
 19 53  1  0
 21 54  1  0
 21 55  1  0
 21 56  1  0
 22 57  1  0
 22 58  1  0
 23 59  1  0
 26 60  1  0
 28 61  1  0
 29 62  1  0
 30 63  1  0
 35 64  1  0
 36 65  1  0
 36 66  1  0
M  CHG  4  15   1  17  -1  32   1  34  -1
M  END
>  <vina_affinity>  (69) 
-9.275

$$$$
dec_C35355763
     RDKit          3D

 40 42  0  0  0  0  0  0  0  0999 V2000
   -3.8090   28.2420   11.5860 N   0  0  0  0  0  0  0  0  0  0  0  0
   -2.4910   27.7190   11.6170 C   0  0  0  0  0  0  0  0  0  0  0  0
   -2.2980   26.3370   11.7080 C   0  0  0  0  0  0  0  0  0  0  0  0
   -1.0070   25.8050   11.7120 C   0  0  0  0  0  0  0  0  0  0  0  0
    0.0840   26.6680   11.5830 C   0  0  0  0  0  0  0  0  0  0  0  0
   -0.1040   28.0420   11.4030 C   0  0  0  0  0  0  0  0  0  0  0  0
   -1.3940   28.5800   11.3530 C   0  0  0  0  0  0  0  0  0  0  0  0
   -1.6730   29.9480   11.1660 N   0  0  0  0  0  0  0  0  0  0  0  0
   -2.2770   30.4560    9.9290 C   0  0  0  0  0  0  0  0  0  0  0  0
   -1.2940   30.2260    8.7690 C   0  0  0  0  0  0  0  0  0  0  0  0
   -0.0800   31.1540    8.8100 C   0  0  0  0  0  0  0  0  0  0  0  0
   -0.4940   32.6180    8.9060 C   0  0  0  0  0  0  0  0  0  0  0  0
   -1.4270   32.8650   10.0860 C   0  0  0  0  0  0  0  0  0  0  0  0
   -2.6450   31.9430   10.0450 C   0  0  0  0  0  0  0  0  0  0  0  0
    1.3810   26.1440   11.5930 N   0  0  0  0  0  0  0  0  0  0  0  0
    1.6830   24.8450   11.8990 C   0  0  0  0  0  0  0  0  0  0  0  0
    2.8400   24.4310   11.8350 O   0  0  0  0  0  0  0  0  0  0  0  0
    0.5500   23.9960   12.4270 C   0  0  0  0  0  0  0  0  0  0  0  0
   -0.7700   24.3230   11.7500 C   0  0  0  0  0  0  0  0  0  0  0  0
   -3.8210   29.2540   11.6690 H   0  0  0  0  0  0  0  0  0  0  0  0
   -4.2610   27.9470   10.7210 H   0  0  0  0  0  0  0  0  0  0  0  0
   -3.1670   25.6661   11.7767 H   0  0  0  0  0  0  0  0  0  0  0  0
    0.7685   28.7040   11.3001 H   0  0  0  0  0  0  0  0  0  0  0  0
   -2.1600   30.2760   12.0000 H   0  0  0  0  0  0  0  0  0  0  0  0
   -3.2135   29.9110    9.7395 H   0  0  0  0  0  0  0  0  0  0  0  0
   -0.9395   29.1856    8.8133 H   0  0  0  0  0  0  0  0  0  0  0  0
   -1.8360   30.4408    7.8362 H   0  0  0  0  0  0  0  0  0  0  0  0
    0.5346   30.8989    9.6859 H   0  0  0  0  0  0  0  0  0  0  0  0
    0.4878   31.0181    7.8778 H   0  0  0  0  0  0  0  0  0  0  0  0
    0.4077   33.2359    9.0293 H   0  0  0  0  0  0  0  0  0  0  0  0
   -1.0311   32.8832    7.9834 H   0  0  0  0  0  0  0  0  0  0  0  0
   -0.8752   32.6857   11.0206 H   0  0  0  0  0  0  0  0  0  0  0  0
   -1.7816   33.9048   10.0314 H   0  0  0  0  0  0  0  0  0  0  0  0
   -3.2244   32.0884   10.9687 H   0  0  0  0  0  0  0  0  0  0  0  0
   -3.2236   32.2067    9.1474 H   0  0  0  0  0  0  0  0  0  0  0  0
    2.1700   26.7360   11.3640 H   0  0  0  0  0  0  0  0  0  0  0  0
    0.7874   22.9367   12.2492 H   0  0  0  0  0  0  0  0  0  0  0  0
    0.4414   24.2047   13.5015 H   0  0  0  0  0  0  0  0  0  0  0  0
   -0.7510   23.9360   10.7205 H   0  0  0  0  0  0  0  0  0  0  0  0
   -1.5823   23.8545   12.3250 H   0  0  0  0  0  0  0  0  0  0  0  0
  1  2  1  0
  2  3  2  0
  3  4  1  0
  4  5  2  0
  5  6  1  0
  6  7  2  0
  7  8  1  0
  8  9  1  0
  9 10  1  0
 10 11  1  0
 11 12  1  0
 12 13  1  0
 13 14  1  0
  5 15  1  0
 15 16  1  0
 16 17  2  0
 16 18  1  0
 18 19  1  0
  7  2  1  0
 14  9  1  0
 19  4  1  0
  1 20  1  0
  1 21  1  0
  3 22  1  0
  6 23  1  0
  8 24  1  0
  9 25  1  0
 10 26  1  0
 10 27  1  0
 11 28  1  0
 11 29  1  0
 12 30  1  0
 12 31  1  0
 13 32  1  0
 13 33  1  0
 14 34  1  0
 14 35  1  0
 15 36  1  0
 18 37  1  0
 18 38  1  0
 19 39  1  0
 19 40  1  0
M  END
>  <vina_affinity>  (70) 
-7.924

$$$$
dec_C33631500
     RDKit          3D

 47 50  0  0  0  0  0  0  0  0999 V2000
    0.2600   29.7390   11.9490 C   0  0  0  0  0  0  0  0  0  0  0  0
   -0.9250   30.2540   11.1750 C   0  0  0  0  0  0  0  0  0  0  0  0
   -1.1490   31.6460   11.2210 C   0  0  0  0  0  0  0  0  0  0  0  0
   -2.2690   32.2180   10.6260 C   0  0  0  0  0  0  0  0  0  0  0  0
   -3.1880   31.4070    9.9760 C   0  0  0  0  0  0  0  0  0  0  0  0
   -2.9700   30.0300    9.8980 C   0  0  0  0  0  0  0  0  0  0  0  0
   -1.8280   29.4310   10.4620 C   0  0  0  0  0  0  0  0  0  0  0  0
   -1.6280   28.0280   10.3150 N   0  0  0  0  0  0  0  0  0  0  0  0
   -2.4450   27.0600   10.8490 C   0  0  0  0  0  0  0  0  0  0  0  0
   -3.5070   27.1920   11.4440 O   0  0  0  0  0  0  0  0  0  0  0  0
   -1.8560   25.7050   10.5820 C   0  0  1  0  0  0  0  0  0  0  0  0
   -0.8930   25.9740    9.4570 C   0  0  2  0  0  0  0  0  0  0  0  0
    0.3400   25.3760    9.8180 O   0  0  0  0  0  0  0  0  0  0  0  0
    0.4010   25.4240   11.2770 N   0  0  0  0  0  0  0  0  0  0  0  0
    1.3360   24.3460   11.6900 C   0  0  0  0  0  0  0  0  0  0  0  0
    2.0190   23.6980   10.4830 C   0  0  0  0  0  0  0  0  0  0  0  0
    2.9800   24.4440    9.8600 N   0  0  0  0  0  0  0  0  0  0  0  0
    1.7650   22.5580   10.1060 O   0  0  0  0  0  0  0  0  0  0  0  0
   -0.9860   25.1110   11.6860 C   0  0  1  0  0  0  0  0  0  0  0  0
   -1.3260   25.5510   13.0950 C   0  0  0  0  0  0  0  0  0  0  0  0
   -0.7530   26.6930   13.6830 C   0  0  0  0  0  0  0  0  0  0  0  0
   -1.0980   27.0810   14.9780 C   0  0  0  0  0  0  0  0  0  0  0  0
   -2.0270   26.3400   15.7040 C   0  0  0  0  0  0  0  0  0  0  0  0
   -2.6090   25.2190   15.1270 C   0  0  0  0  0  0  0  0  0  0  0  0
   -3.5210   24.5280   15.8700 O   0  0  0  0  0  0  0  0  0  0  0  0
   -2.2710   24.8180   13.8360 C   0  0  0  0  0  0  0  0  0  0  0  0
   -0.7630   27.4790    9.3940 C   0  0  0  0  0  0  0  0  0  0  0  0
   -0.0390   28.0460    8.5850 O   0  0  0  0  0  0  0  0  0  0  0  0
    0.0597   29.8261   13.0271 H   0  0  0  0  0  0  0  0  0  0  0  0
    0.4349   28.6837   11.6926 H   0  0  0  0  0  0  0  0  0  0  0  0
    1.1509   30.3311   11.6926 H   0  0  0  0  0  0  0  0  0  0  0  0
   -0.4238   32.2920   11.7375 H   0  0  0  0  0  0  0  0  0  0  0  0
   -2.4248   33.3060   10.6706 H   0  0  0  0  0  0  0  0  0  0  0  0
   -4.0877   31.8484    9.5224 H   0  0  0  0  0  0  0  0  0  0  0  0
   -3.7087   29.3980    9.3833 H   0  0  0  0  0  0  0  0  0  0  0  0
   -2.6872   25.0016   10.4256 H   0  0  0  0  0  0  0  0  0  0  0  0
   -1.2134   25.5740    8.4837 H   0  0  0  0  0  0  0  0  0  0  0  0
    2.1061   24.7745   12.3482 H   0  0  0  0  0  0  0  0  0  0  0  0
    0.7572   23.5713   12.2142 H   0  0  0  0  0  0  0  0  0  0  0  0
    2.9190   25.4480    9.9790 H   0  0  0  0  0  0  0  0  0  0  0  0
    3.3290   24.0860    8.9820 H   0  0  0  0  0  0  0  0  0  0  0  0
   -1.1596   24.0281   11.7707 H   0  0  0  0  0  0  0  0  0  0  0  0
   -0.0232   27.2881   13.1144 H   0  0  0  0  0  0  0  0  0  0  0  0
   -0.6358   27.9730   15.4259 H   0  0  0  0  0  0  0  0  0  0  0  0
   -2.2978   26.6404   16.7269 H   0  0  0  0  0  0  0  0  0  0  0  0
   -3.3140   24.6500   16.8110 H   0  0  0  0  0  0  0  0  0  0  0  0
   -2.7435   23.9275   13.3958 H   0  0  0  0  0  0  0  0  0  0  0  0
  1  2  1  0
  2  3  2  0
  3  4  1  0
  4  5  2  0
  5  6  1  0
  6  7  2  0
  7  8  1  0
  8  9  1  0
  9 10  2  0
  9 11  1  0
 11 12  1  0
 12 13  1  0
 13 14  1  0
 14 15  1  0
 15 16  1  0
 16 17  1  0
 16 18  2  0
 14 19  1  0
 19 20  1  0
 20 21  2  0
 21 22  1  0
 22 23  2  0
 23 24  1  0
 24 25  1  0
 24 26  2  0
 12 27  1  0
 27 28  2  0
  7  2  1  0
 27  8  1  0
 19 11  1  0
 26 20  1  0
  1 29  1  0
  1 30  1  0
  1 31  1  0
  3 32  1  0
  4 33  1  0
  5 34  1  0
  6 35  1  0
 11 36  1  6
 12 37  1  6
 15 38  1  0
 15 39  1  0
 17 40  1  0
 17 41  1  0
 19 42  1  1
 21 43  1  0
 22 44  1  0
 23 45  1  0
 25 46  1  0
 26 47  1  0
M  END
>  <vina_affinity>  (71) 
-7.014

$$$$
dec_C41120721
     RDKit          3D

 51 55  0  0  0  0  0  0  0  0999 V2000
   -0.2770   29.6920   12.7110 N   0  0  0  0  0  0  0  0  0  0  0  0
   -0.2360   28.5730   12.3950 C   0  0  0  0  0  0  0  0  0  0  0  0
   -0.1490   27.2320   11.9190 C   0  0  0  0  0  0  0  0  0  0  0  0
    0.5620   26.8490   10.8390 C   0  0  0  0  0  0  0  0  0  0  0  0
    1.4040   27.6280    9.9820 C   0  0  0  0  0  0  0  0  0  0  0  0
    2.6930   27.3300    9.6070 C   0  0  0  0  0  0  0  0  0  0  0  0
    3.1550   28.3510    8.8160 N   0  0  0  0  0  0  0  0  0  0  0  0
    4.5270   28.4350    8.3140 C   0  0  0  0  0  0  0  0  0  0  0  0
    4.6660   27.7820    6.9520 C   0  0  0  0  0  0  0  0  0  0  0  0
    4.1050   28.4100    5.8210 C   0  0  0  0  0  0  0  0  0  0  0  0
    4.1650   27.8180    4.5530 C   0  0  0  0  0  0  0  0  0  0  0  0
    4.7960   26.5890    4.3760 C   0  0  0  0  0  0  0  0  0  0  0  0
    5.3870   25.9560    5.4660 C   0  0  0  0  0  0  0  0  0  0  0  0
    5.3270   26.5600    6.7340 C   0  0  0  0  0  0  0  0  0  0  0  0
    5.9880   25.8590    7.8220 N   0  0  0  0  0  0  0  0  0  0  0  0
    7.0660   26.3180    8.2230 O   0  0  0  0  0  0  0  0  0  0  0  0
    5.4330   24.8420    8.2590 O   0  0  0  0  0  0  0  0  0  0  0  0
    2.1490   29.2700    8.5850 C   0  0  0  0  0  0  0  0  0  0  0  0
    2.1150   30.4380    7.8060 C   0  0  0  0  0  0  0  0  0  0  0  0
    0.9290   31.1790    7.7740 C   0  0  0  0  0  0  0  0  0  0  0  0
   -0.1820   30.7810    8.5080 C   0  0  0  0  0  0  0  0  0  0  0  0
   -0.1360   29.6240    9.2930 C   0  0  0  0  0  0  0  0  0  0  0  0
    1.0390   28.8420    9.3250 C   0  0  0  0  0  0  0  0  0  0  0  0
   -0.9830   26.1490   12.5410 C   0  0  0  0  0  0  0  0  0  0  0  0
   -1.5720   25.5730   11.6050 O   0  0  0  0  0  0  0  0  0  0  0  0
   -0.9670   26.0300   13.8390 N   0  0  0  0  0  0  0  0  0  0  0  0
   -1.7660   25.0810   14.3970 C   0  0  0  0  0  0  0  0  0  0  0  0
   -3.0290   25.2570   14.7430 N   0  0  0  0  0  0  0  0  0  0  0  0
   -3.5350   24.1190   15.3370 C   0  0  0  0  0  0  0  0  0  0  0  0
   -4.8590   23.9470   15.7880 C   0  0  0  0  0  0  0  0  0  0  0  0
   -5.2490   22.7370   16.3700 C   0  0  0  0  0  0  0  0  0  0  0  0
   -4.3340   21.6990   16.5080 C   0  0  0  0  0  0  0  0  0  0  0  0
   -3.0090   21.8490   16.0860 C   0  0  0  0  0  0  0  0  0  0  0  0
   -2.6310   23.0710   15.5040 C   0  0  0  0  0  0  0  0  0  0  0  0
   -1.0970   23.5600   14.9060 S   0  0  0  0  0  0  0  0  0  0  0  0
    0.4837   25.7831   10.5786 H   0  0  0  0  0  0  0  0  0  0  0  0
    3.2560   26.4290    9.8920 H   0  0  0  0  0  0  0  0  0  0  0  0
    4.8128   29.4941    8.2326 H   0  0  0  0  0  0  0  0  0  0  0  0
    5.1835   27.9031    9.0184 H   0  0  0  0  0  0  0  0  0  0  0  0
    3.6098   29.3854    5.9369 H   0  0  0  0  0  0  0  0  0  0  0  0
    3.7104   28.3275    3.6906 H   0  0  0  0  0  0  0  0  0  0  0  0
    4.8272   26.1213    3.3809 H   0  0  0  0  0  0  0  0  0  0  0  0
    5.8972   24.9902    5.3360 H   0  0  0  0  0  0  0  0  0  0  0  0
    2.9982   30.7618    7.2357 H   0  0  0  0  0  0  0  0  0  0  0  0
    0.8749   32.0896    7.1592 H   0  0  0  0  0  0  0  0  0  0  0  0
   -1.1039   31.3799    8.4714 H   0  0  0  0  0  0  0  0  0  0  0  0
   -1.0137   29.3241    9.8843 H   0  0  0  0  0  0  0  0  0  0  0  0
   -5.5863   24.7654   15.6821 H   0  0  0  0  0  0  0  0  0  0  0  0
   -6.2835   22.6057   16.7200 H   0  0  0  0  0  0  0  0  0  0  0  0
   -4.6566   20.7471   16.9551 H   0  0  0  0  0  0  0  0  0  0  0  0
   -2.2821   21.0322   16.2065 H   0  0  0  0  0  0  0  0  0  0  0  0
  1  2  3  0
  2  3  1  0
  3  4  2  0
  4  5  1  0
  5  6  2  0
  6  7  1  0
  7  8  1  0
  8  9  1  0
  9 10  2  0
 10 11  1  0
 11 12  2  0
 12 13  1  0
 13 14  2  0
 14 15  1  0
 15 16  2  0
 15 17  1  0
  7 18  1  0
 18 19  2  0
 19 20  1  0
 20 21  2  0
 21 22  1  0
 22 23  2  0
  3 24  1  0
 24 25  1  0
 24 26  2  0
 26 27  1  0
 27 28  2  0
 28 29  1  0
 29 30  2  0
 30 31  1  0
 31 32  2  0
 32 33  1  0
 33 34  2  0
 34 35  1  0
 23  5  1  0
 35 27  1  0
 14  9  1  0
 23 18  1  0
 34 29  1  0
  4 36  1  0
  6 37  1  0
  8 38  1  0
  8 39  1  0
 10 40  1  0
 11 41  1  0
 12 42  1  0
 13 43  1  0
 19 44  1  0
 20 45  1  0
 21 46  1  0
 22 47  1  0
 30 48  1  0
 31 49  1  0
 32 50  1  0
 33 51  1  0
M  CHG  3  15   1  17  -1  25  -1
M  END
>  <vina_affinity>  (72) 
-10.196

$$$$
dec_C16975639
     RDKit          3D

 48 52  0  0  0  0  0  0  0  0999 V2000
    0.5900   19.8660   12.6050 C   0  0  0  0  0  0  0  0  0  0  0  0
    0.4680   21.3480   12.9560 C   0  0  2  0  0  0  0  0  0  0  0  0
   -0.1140   21.5330   14.3560 C   0  0  0  0  0  0  0  0  0  0  0  0
   -0.2330   23.0030   14.6910 C   0  0  0  0  0  0  0  0  0  0  0  0
   -0.0210   23.4130   15.8300 O   0  0  0  0  0  0  0  0  0  0  0  0
   -0.6490   23.9340   13.6070 C   0  0  0  0  0  0  0  0  0  0  0  0
   -0.7090   23.4980   12.3370 C   0  0  0  0  0  0  0  0  0  0  0  0
   -0.3890   22.0860   11.9200 C   0  0  0  0  0  0  0  0  0  0  0  0
   -1.0340   24.4070   11.3500 N   0  0  0  0  0  0  0  0  0  0  0  0
   -1.1410   25.7560   11.5970 C   0  0  0  0  0  0  0  0  0  0  0  0
   -1.3090   26.4740   10.4450 N   0  0  0  0  0  0  0  0  0  0  0  0
   -1.3940   27.8080   10.2230 C   0  0  0  0  0  0  0  0  0  0  0  0
   -0.5030   28.4030    9.4560 N   0  0  0  0  0  0  0  0  0  0  0  0
   -0.7630   29.7590    9.3610 C   0  0  0  0  0  0  0  0  0  0  0  0
   -0.0170   30.6950    8.6150 C   0  0  0  0  0  0  0  0  0  0  0  0
   -0.3950   32.0410    8.6110 C   0  0  0  0  0  0  0  0  0  0  0  0
   -1.5030   32.4630    9.3380 C   0  0  0  0  0  0  0  0  0  0  0  0
   -2.2580   31.5540   10.0860 C   0  0  0  0  0  0  0  0  0  0  0  0
   -1.8680   30.2050   10.0810 C   0  0  0  0  0  0  0  0  0  0  0  0
   -2.5760   28.8670   10.8890 S   0  0  0  0  0  0  0  0  0  0  0  0
   -1.0940   26.2680   12.7800 N   0  0  0  0  0  0  0  0  0  0  0  0
   -0.9600   25.3690   13.9540 C   0  0  1  0  0  0  0  0  0  0  0  0
   -2.2120   25.4930   14.8170 C   0  0  0  0  0  0  0  0  0  0  0  0
   -3.2240   24.5190   14.7740 C   0  0  0  0  0  0  0  0  0  0  0  0
   -4.3580   24.6470   15.5740 C   0  0  0  0  0  0  0  0  0  0  0  0
   -5.3090   23.7060   15.5190 F   0  0  0  0  0  0  0  0  0  0  0  0
   -4.5170   25.7290   16.4260 C   0  0  0  0  0  0  0  0  0  0  0  0
   -3.5210   26.6930   16.4720 C   0  0  0  0  0  0  0  0  0  0  0  0
   -3.6600   27.7430   17.2910 F   0  0  0  0  0  0  0  0  0  0  0  0
   -2.3770   26.5870   15.6830 C   0  0  0  0  0  0  0  0  0  0  0  0
    0.6388   19.2729   13.5301 H   0  0  0  0  0  0  0  0  0  0  0  0
   -0.2856   19.5554   12.0161 H   0  0  0  0  0  0  0  0  0  0  0  0
    1.5046   19.7028   12.0161 H   0  0  0  0  0  0  0  0  0  0  0  0
    1.4794   21.7804   12.9426 H   0  0  0  0  0  0  0  0  0  0  0  0
   -1.1112   21.0706   14.3973 H   0  0  0  0  0  0  0  0  0  0  0  0
    0.5565   21.0553   15.0856 H   0  0  0  0  0  0  0  0  0  0  0  0
   -1.3318   21.5356   11.7855 H   0  0  0  0  0  0  0  0  0  0  0  0
    0.1869   22.1361   10.9842 H   0  0  0  0  0  0  0  0  0  0  0  0
   -0.8710   24.1000   10.3990 H   0  0  0  0  0  0  0  0  0  0  0  0
   -1.5630   25.9450    9.6260 H   0  0  0  0  0  0  0  0  0  0  0  0
    0.8600   30.3668    8.0378 H   0  0  0  0  0  0  0  0  0  0  0  0
    0.1875   32.7707    8.0293 H   0  0  0  0  0  0  0  0  0  0  0  0
   -1.7891   33.5251    9.3245 H   0  0  0  0  0  0  0  0  0  0  0  0
   -3.1336   31.8867   10.6627 H   0  0  0  0  0  0  0  0  0  0  0  0
   -0.0786   25.6996   14.5231 H   0  0  0  0  0  0  0  0  0  0  0  0
   -3.1206   23.6514   14.1057 H   0  0  0  0  0  0  0  0  0  0  0  0
   -5.4158   25.8212   17.0534 H   0  0  0  0  0  0  0  0  0  0  0  0
   -1.5997   27.3634   15.7385 H   0  0  0  0  0  0  0  0  0  0  0  0
  1  2  1  0
  2  3  1  0
  3  4  1  0
  4  5  2  0
  4  6  1  0
  6  7  2  0
  7  8  1  0
  7  9  1  0
  9 10  1  0
 10 11  1  0
 11 12  1  0
 12 13  2  0
 13 14  1  0
 14 15  2  0
 15 16  1  0
 16 17  2  0
 17 18  1  0
 18 19  2  0
 19 20  1  0
 10 21  2  0
 21 22  1  0
 22 23  1  0
 23 24  2  0
 24 25  1  0
 25 26  1  0
 25 27  2  0
 27 28  1  0
 28 29  1  0
 28 30  2  0
  8  2  1  0
 20 12  1  0
 30 23  1  0
 22  6  1  0
 19 14  1  0
  1 31  1  0
  1 32  1  0
  1 33  1  0
  2 34  1  1
  3 35  1  0
  3 36  1  0
  8 37  1  0
  8 38  1  0
  9 39  1  0
 11 40  1  0
 15 41  1  0
 16 42  1  0
 17 43  1  0
 18 44  1  0
 22 45  1  1
 24 46  1  0
 27 47  1  0
 30 48  1  0
M  END
>  <vina_affinity>  (73) 
-9.475

$$$$
dec_C01693079
     RDKit          3D

 34 36  0  0  0  0  0  0  0  0999 V2000
   -5.6450   23.9460   15.1350 O   0  0  0  0  0  0  0  0  0  0  0  0
   -4.5600   23.9420   15.7740 C   0  0  0  0  0  0  0  0  0  0  0  0
   -4.2400   23.3380   16.8360 O   0  0  0  0  0  0  0  0  0  0  0  0
   -3.4260   24.7720   15.1880 C   0  0  0  0  0  0  0  0  0  0  0  0
   -3.6170   25.5680   14.1250 C   0  0  0  0  0  0  0  0  0  0  0  0
   -2.5610   26.4050   13.5010 C   0  0  0  0  0  0  0  0  0  0  0  0
   -1.5670   26.7100   14.1520 O   0  0  0  0  0  0  0  0  0  0  0  0
   -2.8670   26.8220   12.2240 N   0  0  0  0  0  0  0  0  0  0  0  0
   -2.0880   27.6130   11.3500 C   0  0  0  0  0  0  0  0  0  0  0  0
   -2.2840   28.9910   11.2110 C   0  0  0  0  0  0  0  0  0  0  0  0
   -1.4780   29.6960   10.3260 C   0  0  0  0  0  0  0  0  0  0  0  0
   -0.4620   29.0610    9.5800 C   0  0  0  0  0  0  0  0  0  0  0  0
   -0.2480   27.7020    9.7110 C   0  0  0  0  0  0  0  0  0  0  0  0
   -1.0640   26.9840   10.5970 C   0  0  0  0  0  0  0  0  0  0  0  0
   -0.7400   25.1110   10.7470 Br  0  0  0  0  0  0  0  0  0  0  0  0
    0.2050   30.0510    8.7600 C   0  0  0  0  0  0  0  0  0  0  0  0
    1.2520   29.9240    7.8630 C   0  0  0  0  0  0  0  0  0  0  0  0
    1.6960   31.0690    7.1920 C   0  0  0  0  0  0  0  0  0  0  0  0
    1.0920   32.3180    7.4180 C   0  0  0  0  0  0  0  0  0  0  0  0
    0.0370   32.4470    8.3220 C   0  0  0  0  0  0  0  0  0  0  0  0
   -0.3960   31.3100    8.9870 C   0  0  0  0  0  0  0  0  0  0  0  0
   -1.5020   31.1820   10.0160 C   0  0  1  0  0  0  0  0  0  0  0  0
   -2.7310   31.6060    9.4560 O   0  0  0  0  0  0  0  0  0  0  0  0
   -2.4276   24.7178   15.6465 H   0  0  0  0  0  0  0  0  0  0  0  0
   -4.6248   25.6030   13.6856 H   0  0  0  0  0  0  0  0  0  0  0  0
   -3.7890   26.5690   11.8830 H   0  0  0  0  0  0  0  0  0  0  0  0
   -3.0624   29.5072   11.7921 H   0  0  0  0  0  0  0  0  0  0  0  0
    0.5416   27.1968    9.1354 H   0  0  0  0  0  0  0  0  0  0  0  0
    1.7234   28.9467    7.6821 H   0  0  0  0  0  0  0  0  0  0  0  0
    2.5291   30.9905    6.4779 H   0  0  0  0  0  0  0  0  0  0  0  0
    1.4552   33.2037    6.8761 H   0  0  0  0  0  0  0  0  0  0  0  0
   -0.4376   33.4229    8.5020 H   0  0  0  0  0  0  0  0  0  0  0  0
   -1.3746   31.7986   10.9180 H   0  0  0  0  0  0  0  0  0  0  0  0
   -3.3590   30.8690    9.5460 H   0  0  0  0  0  0  0  0  0  0  0  0
  1  2  2  0
  2  3  1  0
  2  4  1  0
  4  5  2  0
  5  6  1  0
  6  7  2  0
  6  8  1  0
  8  9  1  0
  9 10  2  0
 10 11  1  0
 11 12  2  0
 12 13  1  0
 13 14  2  0
 14 15  1  0
 12 16  1  0
 16 17  2  0
 17 18  1  0
 18 19  2  0
 19 20  1  0
 20 21  2  0
 21 22  1  0
 22 23  1  0
 14  9  1  0
 21 16  1  0
 22 11  1  0
  4 24  1  0
  5 25  1  0
  8 26  1  0
 10 27  1  0
 13 28  1  0
 17 29  1  0
 18 30  1  0
 19 31  1  0
 20 32  1  0
 22 33  1  1
 23 34  1  0
M  CHG  1   3  -1
M  END
>  <vina_affinity>  (74) 
-8.900

$$$$
dec_C42027687
     RDKit          3D

 45 46  0  0  0  0  0  0  0  0999 V2000
   -1.5200   25.5860   10.2170 C   0  0  0  0  0  0  0  0  0  0  0  0
   -0.2370   26.1250   10.8680 C   0  0  0  0  0  0  0  0  0  0  0  0
    0.9220   25.1900   10.4980 C   0  0  0  0  0  0  0  0  0  0  0  0
   -0.4050   26.2860   12.4160 C   0  0  1  0  0  0  0  0  0  0  0  0
   -0.5300   27.7700   12.8790 C   0  0  0  0  0  0  0  0  0  0  0  0
   -0.2990   28.7550   11.8440 N   0  0  0  0  0  0  0  0  0  0  0  0
   -1.3270   29.3060   11.1170 C   0  0  0  0  0  0  0  0  0  0  0  0
   -2.4880   28.9180   11.2110 O   0  0  0  0  0  0  0  0  0  0  0  0
   -0.9780   30.4210   10.1800 C   0  0  0  0  0  0  0  0  0  0  0  0
   -0.0280   30.1360    9.1850 C   0  0  0  0  0  0  0  0  0  0  0  0
    0.3550   31.1180    8.2740 C   0  0  0  0  0  0  0  0  0  0  0  0
    1.5200   30.7550    7.0620 Cl  0  0  0  0  0  0  0  0  0  0  0  0
   -0.1980   32.3940    8.3360 C   0  0  0  0  0  0  0  0  0  0  0  0
   -1.1450   32.6930    9.3160 C   0  0  0  0  0  0  0  0  0  0  0  0
   -1.5350   31.7110   10.2330 C   0  0  0  0  0  0  0  0  0  0  0  0
   -2.4750   32.0370   11.1780 O   0  0  0  0  0  0  0  0  0  0  0  0
   -1.4340   25.3650   12.9580 N   0  0  0  0  0  0  0  0  0  0  0  0
   -0.9020   24.0770   13.4470 C   0  0  0  0  0  0  0  0  0  0  0  0
   -1.0830   23.8710   14.9610 C   0  0  0  0  0  0  0  0  0  0  0  0
   -2.4550   23.9380   15.3740 O   0  0  0  0  0  0  0  0  0  0  0  0
   -3.2370   24.8400   14.5800 C   0  0  0  0  0  0  0  0  0  0  0  0
   -2.3970   25.9430   13.9120 C   0  0  0  0  0  0  0  0  0  0  0  0
   -2.2313   25.2872   11.0010 H   0  0  0  0  0  0  0  0  0  0  0  0
   -1.9715   26.3705    9.5919 H   0  0  0  0  0  0  0  0  0  0  0  0
   -1.2758   24.7144    9.5919 H   0  0  0  0  0  0  0  0  0  0  0  0
   -0.0170   27.1332   10.4870 H   0  0  0  0  0  0  0  0  0  0  0  0
    1.3936   24.8096   11.4161 H   0  0  0  0  0  0  0  0  0  0  0  0
    0.5377   24.3460    9.9063 H   0  0  0  0  0  0  0  0  0  0  0  0
    1.6656   25.7441    9.9063 H   0  0  0  0  0  0  0  0  0  0  0  0
    0.5392   25.9631   12.8788 H   0  0  0  0  0  0  0  0  0  0  0  0
   -1.5462   27.9203   13.2725 H   0  0  0  0  0  0  0  0  0  0  0  0
    0.2570   27.9246   13.6318 H   0  0  0  0  0  0  0  0  0  0  0  0
    0.5920   29.2430   11.8140 H   0  0  0  0  0  0  0  0  0  0  0  0
    0.4161   29.1314    9.1249 H   0  0  0  0  0  0  0  0  0  0  0  0
    0.1108   33.1645    7.6143 H   0  0  0  0  0  0  0  0  0  0  0  0
   -1.5846   33.7000    9.3676 H   0  0  0  0  0  0  0  0  0  0  0  0
   -2.4520   32.9990   11.3290 H   0  0  0  0  0  0  0  0  0  0  0  0
   -1.4225   23.2634   12.9206 H   0  0  0  0  0  0  0  0  0  0  0  0
    0.1800   24.0786   13.2487 H   0  0  0  0  0  0  0  0  0  0  0  0
   -0.6832   22.8824   15.2308 H   0  0  0  0  0  0  0  0  0  0  0  0
   -0.5450   24.6836   15.4711 H   0  0  0  0  0  0  0  0  0  0  0  0
   -3.7453   24.2629   13.7935 H   0  0  0  0  0  0  0  0  0  0  0  0
   -3.9504   25.3356   15.2549 H   0  0  0  0  0  0  0  0  0  0  0  0
   -3.0670   26.6308   13.3754 H   0  0  0  0  0  0  0  0  0  0  0  0
   -1.8390   26.4812   14.6923 H   0  0  0  0  0  0  0  0  0  0  0  0
  1  2  1  0
  2  3  1  0
  2  4  1  0
  4  5  1  0
  5  6  1  0
  6  7  1  0
  7  8  2  0
  7  9  1  0
  9 10  2  0
 10 11  1  0
 11 12  1  0
 11 13  2  0
 13 14  1  0
 14 15  2  0
 15 16  1  0
  4 17  1  0
 17 18  1  0
 18 19  1  0
 19 20  1  0
 20 21  1  0
 21 22  1  0
 15  9  1  0
 22 17  1  0
  1 23  1  0
  1 24  1  0
  1 25  1  0
  2 26  1  0
  3 27  1  0
  3 28  1  0
  3 29  1  0
  4 30  1  1
  5 31  1  0
  5 32  1  0
  6 33  1  0
 10 34  1  0
 13 35  1  0
 14 36  1  0
 16 37  1  0
 18 38  1  0
 18 39  1  0
 19 40  1  0
 19 41  1  0
 21 42  1  0
 21 43  1  0
 22 44  1  0
 22 45  1  0
M  END
>  <vina_affinity>  (75) 
-7.327

$$$$
dec_C36952175
     RDKit          3D

 32 33  0  0  0  0  0  0  0  0999 V2000
    5.3430   25.4770    4.0620 O   0  0  0  0  0  0  0  0  0  0  0  0
    5.0660   26.3520    5.0700 C   0  0  0  0  0  0  0  0  0  0  0  0
    4.2490   27.4360    4.7830 C   0  0  0  0  0  0  0  0  0  0  0  0
    3.9470   28.3580    5.7880 C   0  0  0  0  0  0  0  0  0  0  0  0
    4.4640   28.2170    7.0900 C   0  0  0  0  0  0  0  0  0  0  0  0
    4.1330   29.2300    8.1640 C   0  0  0  0  0  0  0  0  0  0  0  0
    2.9110   29.9890    7.9070 N   0  0  0  0  0  0  0  0  0  0  0  0
    1.7200   29.6930    8.5730 C   0  0  0  0  0  0  0  0  0  0  0  0
    1.5230   28.5490    9.3480 C   0  0  0  0  0  0  0  0  0  0  0  0
    0.3310   28.3490   10.0520 C   0  0  0  0  0  0  0  0  0  0  0  0
   -0.6810   29.3090   10.0190 C   0  0  0  0  0  0  0  0  0  0  0  0
   -2.2590   28.9430   11.0080 Br  0  0  0  0  0  0  0  0  0  0  0  0
   -0.5050   30.4880    9.2880 C   0  0  0  0  0  0  0  0  0  0  0  0
   -1.5530   31.5660    9.2380 C   0  0  0  0  0  0  0  0  0  0  0  0
   -2.6850   31.1810    8.5850 F   0  0  0  0  0  0  0  0  0  0  0  0
   -1.1340   32.6920    8.5860 F   0  0  0  0  0  0  0  0  0  0  0  0
   -1.9460   31.9920   10.4700 F   0  0  0  0  0  0  0  0  0  0  0  0
    0.7060   30.6640    8.5860 C   0  0  0  0  0  0  0  0  0  0  0  0
    5.2570   27.0880    7.3530 C   0  0  0  0  0  0  0  0  0  0  0  0
    5.7760   26.8060    8.5860 O   0  0  0  0  0  0  0  0  0  0  0  0
    5.5740   26.1690    6.3500 C   0  0  0  0  0  0  0  0  0  0  0  0
    5.1820   24.5750    4.3830 H   0  0  0  0  0  0  0  0  0  0  0  0
    3.8414   27.5686    3.7699 H   0  0  0  0  0  0  0  0  0  0  0  0
    3.2922   29.2113    5.5576 H   0  0  0  0  0  0  0  0  0  0  0  0
    4.0147   28.6963    9.1186 H   0  0  0  0  0  0  0  0  0  0  0  0
    4.9602   29.9548    8.1845 H   0  0  0  0  0  0  0  0  0  0  0  0
    2.7670   30.1650    6.9170 H   0  0  0  0  0  0  0  0  0  0  0  0
    2.3188   27.7918    9.4061 H   0  0  0  0  0  0  0  0  0  0  0  0
    0.1903   27.4277   10.6362 H   0  0  0  0  0  0  0  0  0  0  0  0
    0.8619   31.5985    8.0270 H   0  0  0  0  0  0  0  0  0  0  0  0
    6.3810   27.5120    8.8620 H   0  0  0  0  0  0  0  0  0  0  0  0
    6.2207   25.3073    6.5719 H   0  0  0  0  0  0  0  0  0  0  0  0
  1  2  1  0
  2  3  2  0
  3  4  1  0
  4  5  2  0
  5  6  1  0
  6  7  1  0
  7  8  1  0
  8  9  2  0
  9 10  1  0
 10 11  2  0
 11 12  1  0
 11 13  1  0
 13 14  1  0
 14 15  1  0
 14 16  1  0
 14 17  1  0
 13 18  2  0
  5 19  1  0
 19 20  1  0
 19 21  2  0
 21  2  1  0
 18  8  1  0
  1 22  1  0
  3 23  1  0
  4 24  1  0
  6 25  1  0
  6 26  1  0
  7 27  1  0
  9 28  1  0
 10 29  1  0
 18 30  1  0
 20 31  1  0
 21 32  1  0
M  END
>  <vina_affinity>  (76) 
-7.988

$$$$
dec_C39631581
     RDKit          3D

 73 74  0  0  0  0  0  0  0  0999 V2000
   -4.1460   30.4500    9.3740 C   0  0  0  0  0  0  0  0  0  0  0  0
   -2.8550   31.0240    8.8190 C   0  0  0  0  0  0  0  0  0  0  0  0
   -1.6210   30.9730    9.7400 C   0  0  0  0  0  0  0  0  0  0  0  0
   -0.7980   32.2670    9.7560 C   0  0  0  0  0  0  0  0  0  0  0  0
   -1.5210   33.4170   10.4460 C   0  0  0  0  0  0  0  0  0  0  0  0
   -0.8760   29.6380    9.6150 C   0  0  0  0  0  0  0  0  0  0  0  0
    0.0940   29.5790    8.8480 O   0  0  0  0  0  0  0  0  0  0  0  0
   -1.2010   28.5300   10.3630 N   0  0  0  0  0  0  0  0  0  0  0  0
   -0.5340   27.2710   10.0620 C   0  0  0  0  0  0  0  0  0  0  0  0
   -1.3250   26.2240   10.8360 C   0  0  1  0  0  0  0  0  0  0  0  0
   -0.5810   24.9250   11.0790 C   0  0  0  0  0  0  0  0  0  0  0  0
   -1.1600   23.9400   11.5390 O   0  0  0  0  0  0  0  0  0  0  0  0
    0.7210   24.8970   10.6560 N   0  0  0  0  0  0  0  0  0  0  0  0
    1.5750   23.7150   10.8000 C   0  0  2  0  0  0  0  0  0  0  0  0
    1.9330   23.5200   12.2740 C   0  0  0  0  0  0  0  0  0  0  0  0
    2.8190   23.8730    9.9100 C   0  0  0  0  0  0  0  0  0  0  0  0
    3.0500   25.2720    9.3290 C   0  0  0  0  0  0  0  0  0  0  0  0
    4.1000   25.3940    8.2130 C   0  0  0  0  0  0  0  0  0  0  0  0
    4.7770   26.7700    8.0320 C   0  0  0  0  0  0  0  0  0  0  0  0
    4.0530   27.8090    8.8970 C   0  0  0  0  0  0  0  0  0  0  0  0
    4.7950   27.2290    6.5730 C   0  0  0  0  0  0  0  0  0  0  0  0
    6.1250   26.6910    8.5030 O   0  0  0  0  0  0  0  0  0  0  0  0
   -1.8330   27.0140   12.0900 C   0  0  0  0  0  0  0  0  0  0  0  0
   -3.0660   26.3470   12.7490 C   0  0  0  0  0  0  0  0  0  0  0  0
   -2.8540   25.8770   14.1870 C   0  0  0  0  0  0  0  0  0  0  0  0
   -1.4930   25.3230   14.3300 N   0  0  0  0  0  0  0  0  0  0  0  0
   -0.4000   26.3140   14.1920 C   0  0  0  0  0  0  0  0  0  0  0  0
   -0.7460   27.3730   13.1490 C   0  0  0  0  0  0  0  0  0  0  0  0
   -2.2350   28.3320   11.3660 C   0  0  0  0  0  0  0  0  0  0  0  0
   -4.1114   30.4654   10.4733 H   0  0  0  0  0  0  0  0  0  0  0  0
   -4.9960   31.0550    9.0254 H   0  0  0  0  0  0  0  0  0  0  0  0
   -4.2662   29.4136    9.0254 H   0  0  0  0  0  0  0  0  0  0  0  0
   -2.6098   30.4671    7.9026 H   0  0  0  0  0  0  0  0  0  0  0  0
   -3.0573   32.0945    8.6669 H   0  0  0  0  0  0  0  0  0  0  0  0
   -1.9666   30.9628   10.7842 H   0  0  0  0  0  0  0  0  0  0  0  0
    0.1465   32.0765   10.2867 H   0  0  0  0  0  0  0  0  0  0  0  0
   -0.6256   32.5632    8.7108 H   0  0  0  0  0  0  0  0  0  0  0  0
   -1.4450   33.2961   11.5367 H   0  0  0  0  0  0  0  0  0  0  0  0
   -1.0596   34.3706   10.1497 H   0  0  0  0  0  0  0  0  0  0  0  0
   -2.5803   33.4145   10.1497 H   0  0  0  0  0  0  0  0  0  0  0  0
   -0.5662   27.0626    8.9824 H   0  0  0  0  0  0  0  0  0  0  0  0
    0.5292   27.2838   10.3437 H   0  0  0  0  0  0  0  0  0  0  0  0
   -2.1751   25.8087   10.2748 H   0  0  0  0  0  0  0  0  0  0  0  0
    1.1620   25.7320   10.2850 H   0  0  0  0  0  0  0  0  0  0  0  0
    1.0429   22.8111   10.4685 H   0  0  0  0  0  0  0  0  0  0  0  0
    1.1410   23.9514   12.9038 H   0  0  0  0  0  0  0  0  0  0  0  0
    2.0281   22.4455   12.4892 H   0  0  0  0  0  0  0  0  0  0  0  0
    2.8873   24.0229   12.4892 H   0  0  0  0  0  0  0  0  0  0  0  0
    3.7006   23.6078   10.5121 H   0  0  0  0  0  0  0  0  0  0  0  0
    2.6532   23.2139    9.0450 H   0  0  0  0  0  0  0  0  0  0  0  0
    2.0908   25.6266    8.9238 H   0  0  0  0  0  0  0  0  0  0  0  0
    3.4464   25.8686   10.1638 H   0  0  0  0  0  0  0  0  0  0  0  0
    4.8921   24.6598    8.4215 H   0  0  0  0  0  0  0  0  0  0  0  0
    3.5438   25.2253    7.2791 H   0  0  0  0  0  0  0  0  0  0  0  0
    4.2143   27.5775    9.9602 H   0  0  0  0  0  0  0  0  0  0  0  0
    4.4496   28.8109    8.6756 H   0  0  0  0  0  0  0  0  0  0  0  0
    2.9758   27.7839    8.6756 H   0  0  0  0  0  0  0  0  0  0  0  0
    4.8381   28.3275    6.5347 H   0  0  0  0  0  0  0  0  0  0  0  0
    5.6774   26.8096    6.0675 H   0  0  0  0  0  0  0  0  0  0  0  0
    3.8825   26.8800    6.0675 H   0  0  0  0  0  0  0  0  0  0  0  0
    6.2160   27.3340    9.2290 H   0  0  0  0  0  0  0  0  0  0  0  0
   -3.8903   27.0753   12.7460 H   0  0  0  0  0  0  0  0  0  0  0  0
   -3.2793   25.4437   12.1585 H   0  0  0  0  0  0  0  0  0  0  0  0
   -2.9768   26.7284   14.8726 H   0  0  0  0  0  0  0  0  0  0  0  0
   -3.5930   25.0994   14.4305 H   0  0  0  0  0  0  0  0  0  0  0  0
   -1.3890   24.8000   15.2080 H   0  0  0  0  0  0  0  0  0  0  0  0
   -1.3270   24.6090   13.5840 H   0  0  0  0  0  0  0  0  0  0  0  0
   -0.2363   26.8056   15.1623 H   0  0  0  0  0  0  0  0  0  0  0  0
    0.5094   25.7876   13.8666 H   0  0  0  0  0  0  0  0  0  0  0  0
   -1.0946   28.2656   13.6891 H   0  0  0  0  0  0  0  0  0  0  0  0
    0.1783   27.5053   12.5674 H   0  0  0  0  0  0  0  0  0  0  0  0
   -3.2218   28.2287   10.8912 H   0  0  0  0  0  0  0  0  0  0  0  0
   -2.3113   29.1823   12.0597 H   0  0  0  0  0  0  0  0  0  0  0  0
  1  2  1  0
  2  3  1  0
  3  4  1  0
  4  5  1  0
  3  6  1  0
  6  7  2  0
  6  8  1  0
  8  9  1  0
  9 10  1  0
 10 11  1  0
 11 12  2  0
 11 13  1  0
 13 14  1  0
 14 15  1  0
 14 16  1  0
 16 17  1  0
 17 18  1  0
 18 19  1  0
 19 20  1  0
 19 21  1  0
 19 22  1  0
 10 23  1  0
 23 24  1  0
 24 25  1  0
 25 26  1  0
 26 27  1  0
 27 28  1  0
 23 29  1  0
 29  8  1  0
 28 23  1  0
  1 30  1  0
  1 31  1  0
  1 32  1  0
  2 33  1  0
  2 34  1  0
  3 35  1  0
  4 36  1  0
  4 37  1  0
  5 38  1  0
  5 39  1  0
  5 40  1  0
  9 41  1  0
  9 42  1  0
 10 43  1  6
 13 44  1  0
 14 45  1  6
 15 46  1  0
 15 47  1  0
 15 48  1  0
 16 49  1  0
 16 50  1  0
 17 51  1  0
 17 52  1  0
 18 53  1  0
 18 54  1  0
 20 55  1  0
 20 56  1  0
 20 57  1  0
 21 58  1  0
 21 59  1  0
 21 60  1  0
 22 61  1  0
 24 62  1  0
 24 63  1  0
 25 64  1  0
 25 65  1  0
 26 66  1  0
 26 67  1  0
 27 68  1  0
 27 69  1  0
 28 70  1  0
 28 71  1  0
 29 72  1  0
 29 73  1  0
M  CHG  1  26   1
M  END
>  <vina_affinity>  (77) 
-7.259

$$$$
dec_C09318924
     RDKit          3D

 41 44  0  0  0  0  0  0  0  0999 V2000
   -5.1750   23.2770   15.3340 N   0  0  0  0  0  0  0  0  0  0  0  0
   -4.0290   23.9230   15.7130 C   0  0  0  0  0  0  0  0  0  0  0  0
   -3.0500   23.2790   16.0720 O   0  0  0  0  0  0  0  0  0  0  0  0
   -4.1030   25.4520   15.6500 C   0  0  0  0  0  0  0  0  0  0  0  0
   -2.8610   26.1350   15.6400 O   0  0  0  0  0  0  0  0  0  0  0  0
   -2.2450   26.3360   14.4360 C   0  0  0  0  0  0  0  0  0  0  0  0
   -0.8820   26.5390   14.2270 C   0  0  0  0  0  0  0  0  0  0  0  0
   -0.3890   26.7330   12.9320 C   0  0  0  0  0  0  0  0  0  0  0  0
   -1.2500   26.7290   11.8220 C   0  0  0  0  0  0  0  0  0  0  0  0
   -0.7230   26.9120   10.4050 C   0  0  2  0  0  0  0  0  0  0  0  0
    0.4030   26.0140   10.1850 N   0  0  0  0  0  0  0  0  0  0  0  0
    1.6380   26.5710   10.0950 C   0  0  0  0  0  0  0  0  0  0  0  0
    2.6040   25.6240   10.1610 N   0  0  0  0  0  0  0  0  0  0  0  0
    1.9360   27.8200    9.9590 N   0  0  0  0  0  0  0  0  0  0  0  0
    0.9000   28.6960    9.9010 C   0  0  0  0  0  0  0  0  0  0  0  0
    0.9330   29.9890    9.6500 N   0  0  0  0  0  0  0  0  0  0  0  0
   -0.3700   30.4200    9.6920 C   0  0  0  0  0  0  0  0  0  0  0  0
   -0.8900   31.7070    9.4840 C   0  0  0  0  0  0  0  0  0  0  0  0
   -2.2730   31.8980    9.5780 C   0  0  0  0  0  0  0  0  0  0  0  0
   -3.1230   30.8310    9.8750 C   0  0  0  0  0  0  0  0  0  0  0  0
   -2.6250   29.5400   10.0860 C   0  0  0  0  0  0  0  0  0  0  0  0
   -1.2390   29.3740    9.9860 C   0  0  0  0  0  0  0  0  0  0  0  0
   -0.4000   28.3020   10.1270 N   0  0  0  0  0  0  0  0  0  0  0  0
   -2.6180   26.5090   12.0410 C   0  0  0  0  0  0  0  0  0  0  0  0
   -3.1050   26.3190   13.3370 C   0  0  0  0  0  0  0  0  0  0  0  0
   -5.1270   22.2660   15.2920 H   0  0  0  0  0  0  0  0  0  0  0  0
   -5.9160   23.7370   14.8250 H   0  0  0  0  0  0  0  0  0  0  0  0
   -4.6445   25.7251   14.7323 H   0  0  0  0  0  0  0  0  0  0  0  0
   -4.6045   25.7628   16.5784 H   0  0  0  0  0  0  0  0  0  0  0  0
   -0.1914   26.5467   15.0832 H   0  0  0  0  0  0  0  0  0  0  0  0
    0.6890   26.8910   12.7808 H   0  0  0  0  0  0  0  0  0  0  0  0
   -1.5135   26.6446    9.6884 H   0  0  0  0  0  0  0  0  0  0  0  0
    0.3780   25.1870   10.7710 H   0  0  0  0  0  0  0  0  0  0  0  0
    3.5080   26.0370    9.9480 H   0  0  0  0  0  0  0  0  0  0  0  0
    2.4270   24.8370    9.5480 H   0  0  0  0  0  0  0  0  0  0  0  0
   -0.2226   32.5499    9.2514 H   0  0  0  0  0  0  0  0  0  0  0  0
   -2.6955   32.9006    9.4160 H   0  0  0  0  0  0  0  0  0  0  0  0
   -4.2063   31.0085    9.9446 H   0  0  0  0  0  0  0  0  0  0  0  0
   -3.2912   28.6963   10.3193 H   0  0  0  0  0  0  0  0  0  0  0  0
   -3.3115   26.4859   11.1875 H   0  0  0  0  0  0  0  0  0  0  0  0
   -4.1813   26.1537   13.4931 H   0  0  0  0  0  0  0  0  0  0  0  0
  1  2  1  0
  2  3  2  0
  2  4  1  0
  4  5  1  0
  5  6  1  0
  6  7  2  0
  7  8  1  0
  8  9  2  0
  9 10  1  0
 10 11  1  0
 11 12  1  0
 12 13  1  0
 12 14  2  0
 14 15  1  0
 15 16  2  0
 16 17  1  0
 17 18  2  0
 18 19  1  0
 19 20  2  0
 20 21  1  0
 21 22  2  0
 22 23  1  0
  9 24  1  0
 24 25  2  0
 25  6  1  0
 23 10  1  0
 23 15  1  0
 22 17  1  0
  1 26  1  0
  1 27  1  0
  4 28  1  0
  4 29  1  0
  7 30  1  0
  8 31  1  0
 10 32  1  6
 11 33  1  0
 13 34  1  0
 13 35  1  0
 18 36  1  0
 19 37  1  0
 20 38  1  0
 21 39  1  0
 24 40  1  0
 25 41  1  0
M  END
>  <vina_affinity>  (78) 
-8.369

$$$$
dec_C63572004
     RDKit          3D

 57 60  0  0  0  0  0  0  0  0999 V2000
   -2.3700   21.9770   15.3340 C   0  0  0  0  0  0  0  0  0  0  0  0
   -1.4880   22.8000   16.0880 O   0  0  0  0  0  0  0  0  0  0  0  0
   -0.3950   23.2920   15.3180 C   0  0  0  0  0  0  0  0  0  0  0  0
   -0.0110   22.3490   14.1780 C   0  0  0  0  0  0  0  0  0  0  0  0
    0.6320   23.0390   12.9770 C   0  0  0  0  0  0  0  0  0  0  0  0
   -0.3230   23.7820   12.1760 N   0  0  0  0  0  0  0  0  0  0  0  0
   -0.0140   25.0430   11.7380 C   0  0  0  0  0  0  0  0  0  0  0  0
    1.0950   25.5540   11.8250 O   0  0  0  0  0  0  0  0  0  0  0  0
   -1.0980   25.6830   11.1240 N   0  0  0  0  0  0  0  0  0  0  0  0
   -0.9310   25.9480    9.6800 C   0  0  0  0  0  0  0  0  0  0  0  0
   -0.0200   27.1840    9.4460 C   0  0  0  0  0  0  0  0  0  0  0  0
   -0.4700   28.3330   10.3070 C   0  0  0  0  0  0  0  0  0  0  0  0
   -0.8180   29.5840    9.9850 C   0  0  0  0  0  0  0  0  0  0  0  0
   -0.8200   30.3550    8.7840 C   0  0  0  0  0  0  0  0  0  0  0  0
   -1.3160   31.6030    8.8280 C   0  0  0  0  0  0  0  0  0  0  0  0
   -1.8550   32.1780   10.0520 C   0  0  0  0  0  0  0  0  0  0  0  0
   -1.9130   31.5110   11.2190 C   0  0  0  0  0  0  0  0  0  0  0  0
   -1.3960   30.1350   11.2330 C   0  0  0  0  0  0  0  0  0  0  0  0
   -1.3910   29.2990   12.1990 N   0  0  0  0  0  0  0  0  0  0  0  0
   -0.7490   28.0380   11.7760 C   0  0  1  0  0  0  0  0  0  0  0  0
   -1.7030   26.8270   11.8460 C   0  0  2  0  0  0  0  0  0  0  0  0
   -2.2770   26.4830   13.2130 C   0  0  0  0  0  0  0  0  0  0  0  0
   -1.5860   26.6980   14.4170 C   0  0  0  0  0  0  0  0  0  0  0  0
   -2.1720   26.3920   15.6520 C   0  0  0  0  0  0  0  0  0  0  0  0
   -3.4590   25.8640   15.7090 C   0  0  0  0  0  0  0  0  0  0  0  0
   -4.1450   25.5320   16.8430 O   0  0  0  0  0  0  0  0  0  0  0  0
   -4.8960   24.3240   16.8170 C   0  0  0  0  0  0  0  0  0  0  0  0
   -4.1490   25.6340   14.5200 C   0  0  0  0  0  0  0  0  0  0  0  0
   -3.5650   25.9280   13.2870 C   0  0  0  0  0  0  0  0  0  0  0  0
   -2.9992   21.3899   16.0191 H   0  0  0  0  0  0  0  0  0  0  0  0
   -3.0091   22.6090   14.6999 H   0  0  0  0  0  0  0  0  0  0  0  0
   -1.7836   21.2957   14.6999 H   0  0  0  0  0  0  0  0  0  0  0  0
   -0.6746   24.2663   14.8909 H   0  0  0  0  0  0  0  0  0  0  0  0
    0.4736   23.3783   15.9875 H   0  0  0  0  0  0  0  0  0  0  0  0
    0.7005   21.6073   14.5701 H   0  0  0  0  0  0  0  0  0  0  0  0
   -0.9464   21.8971   13.8163 H   0  0  0  0  0  0  0  0  0  0  0  0
    1.4011   23.7355   13.3423 H   0  0  0  0  0  0  0  0  0  0  0  0
    1.0618   22.2549   12.3363 H   0  0  0  0  0  0  0  0  0  0  0  0
   -1.2770   23.7230   12.5140 H   0  0  0  0  0  0  0  0  0  0  0  0
   -0.4745   25.0684    9.2027 H   0  0  0  0  0  0  0  0  0  0  0  0
   -1.9197   26.1519    9.2431 H   0  0  0  0  0  0  0  0  0  0  0  0
    1.0179   26.9237    9.7012 H   0  0  0  0  0  0  0  0  0  0  0  0
   -0.0841   27.4816    8.3890 H   0  0  0  0  0  0  0  0  0  0  0  0
   -0.4253   29.9380    7.8457 H   0  0  0  0  0  0  0  0  0  0  0  0
   -1.3147   32.2093    7.9102 H   0  0  0  0  0  0  0  0  0  0  0  0
   -2.2341   33.2102   10.0212 H   0  0  0  0  0  0  0  0  0  0  0  0
   -2.3298   31.9758   12.1247 H   0  0  0  0  0  0  0  0  0  0  0  0
   -1.7640   29.5070   13.1240 H   0  0  0  0  0  0  0  0  0  0  0  0
    0.1154   27.7770   12.4042 H   0  0  0  0  0  0  0  0  0  0  0  0
   -2.6245   27.1297   11.3272 H   0  0  0  0  0  0  0  0  0  0  0  0
   -0.5679   27.1135   14.3895 H   0  0  0  0  0  0  0  0  0  0  0  0
   -1.6122   26.5699   16.5820 H   0  0  0  0  0  0  0  0  0  0  0  0
   -5.0996   23.9966   17.8472 H   0  0  0  0  0  0  0  0  0  0  0  0
   -5.8473   24.4949   16.2918 H   0  0  0  0  0  0  0  0  0  0  0  0
   -4.3218   23.5465   16.2918 H   0  0  0  0  0  0  0  0  0  0  0  0
   -5.1658   25.2158   14.5539 H   0  0  0  0  0  0  0  0  0  0  0  0
   -4.1211   25.7222   12.3605 H   0  0  0  0  0  0  0  0  0  0  0  0
  1  2  1  0
  2  3  1  0
  3  4  1  0
  4  5  1  0
  5  6  1  0
  6  7  1  0
  7  8  2  0
  7  9  1  0
  9 10  1  0
 10 11  1  0
 11 12  1  0
 12 13  2  0
 13 14  1  0
 14 15  2  0
 15 16  1  0
 16 17  2  0
 17 18  1  0
 18 19  2  0
 19 20  1  0
 20 21  1  0
 21 22  1  0
 22 23  2  0
 23 24  1  0
 24 25  2  0
 25 26  1  0
 26 27  1  0
 25 28  1  0
 28 29  2  0
 21  9  1  0
 29 22  1  0
 20 12  1  0
 18 13  1  0
  1 30  1  0
  1 31  1  0
  1 32  1  0
  3 33  1  0
  3 34  1  0
  4 35  1  0
  4 36  1  0
  5 37  1  0
  5 38  1  0
  6 39  1  0
 10 40  1  0
 10 41  1  0
 11 42  1  0
 11 43  1  0
 14 44  1  0
 15 45  1  0
 16 46  1  0
 17 47  1  0
 19 48  1  0
 20 49  1  1
 21 50  1  6
 23 51  1  0
 24 52  1  0
 27 53  1  0
 27 54  1  0
 27 55  1  0
 28 56  1  0
 29 57  1  0
M  CHG  1  19   1
M  END
>  <vina_affinity>  (79) 
-7.168

$$$$
dec_C05271817
     RDKit          3D

 34 36  0  0  0  0  0  0  0  0999 V2000
    7.0780   24.9130    2.8900 C   0  0  0  0  0  0  0  0  0  0  0  0
    7.9880   24.5150    4.4070 S   0  0  0  0  0  0  0  0  0  0  0  0
    6.9980   25.3850    5.6080 C   0  0  0  0  0  0  0  0  0  0  0  0
    5.7790   25.9380    5.2040 C   0  0  0  0  0  0  0  0  0  0  0  0
    4.9780   26.6400    6.1120 C   0  0  0  0  0  0  0  0  0  0  0  0
    5.3950   26.7980    7.4390 C   0  0  0  0  0  0  0  0  0  0  0  0
    4.5850   27.5360    8.4470 C   0  0  0  0  0  0  0  0  0  0  0  0
    4.8550   28.6980    8.7460 O   0  0  0  0  0  0  0  0  0  0  0  0
    3.5500   26.8360    9.0430 N   0  0  0  0  0  0  0  0  0  0  0  0
    2.9750   27.4430   10.1780 N   0  0  0  0  0  0  0  0  0  0  0  0
    1.7710   28.0560   10.0690 C   0  0  0  0  0  0  0  0  0  0  0  0
    1.5560   29.1260    9.3360 N   0  0  0  0  0  0  0  0  0  0  0  0
    0.2260   29.5140    9.4250 C   0  0  0  0  0  0  0  0  0  0  0  0
   -0.3820   30.6170    8.7840 C   0  0  0  0  0  0  0  0  0  0  0  0
    0.3380   31.4200    7.9870 F   0  0  0  0  0  0  0  0  0  0  0  0
   -1.7360   30.8900    8.9630 C   0  0  0  0  0  0  0  0  0  0  0  0
   -2.4910   30.0680    9.7810 C   0  0  0  0  0  0  0  0  0  0  0  0
   -3.7930   30.3350    9.9510 F   0  0  0  0  0  0  0  0  0  0  0  0
   -1.9380   28.9680   10.4360 C   0  0  0  0  0  0  0  0  0  0  0  0
   -0.5710   28.7090   10.2420 C   0  0  0  0  0  0  0  0  0  0  0  0
    0.3970   27.4450   10.8970 S   0  0  0  0  0  0  0  0  0  0  0  0
    6.6300   26.2700    7.8360 C   0  0  0  0  0  0  0  0  0  0  0  0
    7.4270   25.5680    6.9250 C   0  0  0  0  0  0  0  0  0  0  0  0
    6.0990   25.3412    3.1513 H   0  0  0  0  0  0  0  0  0  0  0  0
    7.6514   25.6425    2.2992 H   0  0  0  0  0  0  0  0  0  0  0  0
    6.9316   23.9968    2.2992 H   0  0  0  0  0  0  0  0  0  0  0  0
    5.4462   25.8202    4.1622 H   0  0  0  0  0  0  0  0  0  0  0  0
    4.0197   27.0681    5.7826 H   0  0  0  0  0  0  0  0  0  0  0  0
    3.5540   25.8180    9.0790 H   0  0  0  0  0  0  0  0  0  0  0  0
    3.1540   26.9090   11.0350 H   0  0  0  0  0  0  0  0  0  0  0  0
   -2.2005   31.7504    8.4592 H   0  0  0  0  0  0  0  0  0  0  0  0
   -2.5520   28.3244   11.0832 H   0  0  0  0  0  0  0  0  0  0  0  0
    6.9758   26.4081    8.8711 H   0  0  0  0  0  0  0  0  0  0  0  0
    8.3957   25.1584    7.2472 H   0  0  0  0  0  0  0  0  0  0  0  0
  1  2  1  0
  2  3  1  0
  3  4  2  0
  4  5  1  0
  5  6  2  0
  6  7  1  0
  7  8  2  0
  7  9  1  0
  9 10  1  0
 10 11  1  0
 11 12  2  0
 12 13  1  0
 13 14  2  0
 14 15  1  0
 14 16  1  0
 16 17  2  0
 17 18  1  0
 17 19  1  0
 19 20  2  0
 20 21  1  0
  6 22  1  0
 22 23  2  0
 23  3  1  0
 21 11  1  0
 20 13  1  0
  1 24  1  0
  1 25  1  0
  1 26  1  0
  4 27  1  0
  5 28  1  0
  9 29  1  0
 10 30  1  0
 16 31  1  0
 19 32  1  0
 22 33  1  0
 23 34  1  0
M  END
>  <vina_affinity>  (80) 
-8.171

$$$$
dec_C41600280
     RDKit          3D

 46 48  0  0  0  0  0  0  0  0999 V2000
   -3.5740   30.8180    9.1670 C   0  0  0  0  0  0  0  0  0  0  0  0
   -2.4810   30.8330   10.2420 C   0  0  2  0  0  0  0  0  0  0  0  0
   -1.9450   32.2540   10.4610 C   0  0  0  0  0  0  0  0  0  0  0  0
   -1.1450   32.7920    9.2740 C   0  0  0  0  0  0  0  0  0  0  0  0
   -0.2920   31.7290    8.5800 C   0  0  0  0  0  0  0  0  0  0  0  0
   -0.0350   30.5260    9.4740 C   0  0  0  0  0  0  0  0  0  0  0  0
   -1.3460   29.8380    9.8900 C   0  0  1  0  0  0  0  0  0  0  0  0
   -1.0480   29.0020   11.0610 N   0  0  0  0  0  0  0  0  0  0  0  0
   -0.3290   27.5030   10.8770 S   0  0  0  0  0  0  0  0  0  0  0  0
   -0.8390   26.9560    9.6390 O   0  0  0  0  0  0  0  0  0  0  0  0
    1.0890   27.6410   11.1200 O   0  0  0  0  0  0  0  0  0  0  0  0
   -1.0540   26.5850   12.2100 C   0  0  0  0  0  0  0  0  0  0  0  0
   -0.2310   25.8280   13.0470 C   0  0  0  0  0  0  0  0  0  0  0  0
   -0.8030   25.0950   14.0850 C   0  0  0  0  0  0  0  0  0  0  0  0
   -2.1840   25.1300   14.2840 C   0  0  0  0  0  0  0  0  0  0  0  0
   -3.0120   25.9430   13.4820 C   0  0  0  0  0  0  0  0  0  0  0  0
   -2.4350   26.6470   12.4210 C   0  0  0  0  0  0  0  0  0  0  0  0
   -4.4150   25.9730   13.6440 N   0  0  0  0  0  0  0  0  0  0  0  0
   -4.8120   25.4780   14.9620 C   0  0  0  0  0  0  0  0  0  0  0  0
   -4.0810   24.1620   15.2580 C   0  0  2  0  0  0  0  0  0  0  0  0
   -4.5210   23.5850   16.5960 C   0  0  0  0  0  0  0  0  0  0  0  0
   -2.6580   24.3650   15.3240 O   0  0  0  0  0  0  0  0  0  0  0  0
   -4.5625   30.8044    9.6493 H   0  0  0  0  0  0  0  0  0  0  0  0
   -3.4842   31.7175    8.5402 H   0  0  0  0  0  0  0  0  0  0  0  0
   -3.4595   29.9213    8.5402 H   0  0  0  0  0  0  0  0  0  0  0  0
   -2.9266   30.5015   11.1915 H   0  0  0  0  0  0  0  0  0  0  0  0
   -2.7984   32.9248   10.6388 H   0  0  0  0  0  0  0  0  0  0  0  0
   -1.2610   32.2136   11.3215 H   0  0  0  0  0  0  0  0  0  0  0  0
   -1.8500   33.2071    8.5387 H   0  0  0  0  0  0  0  0  0  0  0  0
   -0.4555   33.5534    9.6675 H   0  0  0  0  0  0  0  0  0  0  0  0
   -0.8152   31.3913    7.6732 H   0  0  0  0  0  0  0  0  0  0  0  0
    0.6800   32.1823    8.3356 H   0  0  0  0  0  0  0  0  0  0  0  0
    0.5898   29.8033    8.9287 H   0  0  0  0  0  0  0  0  0  0  0  0
    0.4728   30.8768   10.3845 H   0  0  0  0  0  0  0  0  0  0  0  0
   -1.7118   29.2485    9.0364 H   0  0  0  0  0  0  0  0  0  0  0  0
   -1.5920   29.1110   11.9140 H   0  0  0  0  0  0  0  0  0  0  0  0
    0.8574   25.8106   12.8885 H   0  0  0  0  0  0  0  0  0  0  0  0
   -0.1666   24.4893   14.7470 H   0  0  0  0  0  0  0  0  0  0  0  0
   -3.0672   27.2496   11.7522 H   0  0  0  0  0  0  0  0  0  0  0  0
   -4.7990   26.8880   13.4190 H   0  0  0  0  0  0  0  0  0  0  0  0
   -4.5494   26.2231   15.7274 H   0  0  0  0  0  0  0  0  0  0  0  0
   -5.8981   25.3041   14.9755 H   0  0  0  0  0  0  0  0  0  0  0  0
   -4.3305   23.4697   14.4404 H   0  0  0  0  0  0  0  0  0  0  0  0
   -4.0742   24.1709   17.4127 H   0  0  0  0  0  0  0  0  0  0  0  0
   -5.6176   23.6281   16.6711 H   0  0  0  0  0  0  0  0  0  0  0  0
   -4.1892   22.5389   16.6711 H   0  0  0  0  0  0  0  0  0  0  0  0
  1  2  1  0
  2  3  1  0
  3  4  1  0
  4  5  1  0
  5  6  1  0
  6  7  1  0
  7  8  1  0
  8  9  1  0
  9 10  2  0
  9 11  2  0
  9 12  1  0
 12 13  2  0
 13 14  1  0
 14 15  2  0
 15 16  1  0
 16 17  2  0
 16 18  1  0
 18 19  1  0
 19 20  1  0
 20 21  1  0
 20 22  1  0
  7  2  1  0
 17 12  1  0
 22 15  1  0
  1 23  1  0
  1 24  1  0
  1 25  1  0
  2 26  1  1
  3 27  1  0
  3 28  1  0
  4 29  1  0
  4 30  1  0
  5 31  1  0
  5 32  1  0
  6 33  1  0
  6 34  1  0
  7 35  1  6
  8 36  1  0
 13 37  1  0
 14 38  1  0
 17 39  1  0
 18 40  1  0
 19 41  1  0
 19 42  1  0
 20 43  1  6
 21 44  1  0
 21 45  1  0
 21 46  1  0
M  END
>  <vina_affinity>  (81) 
-8.013

$$$$
dec_C33557718
     RDKit          3D

 72 77  0  0  0  0  0  0  0  0999 V2000
    4.5050   26.2470    6.6440 O   0  0  0  0  0  0  0  0  0  0  0  0
    5.1990   26.6340    7.5710 C   0  0  0  0  0  0  0  0  0  0  0  0
    4.8060   27.4780    8.5890 N   0  0  0  0  0  0  0  0  0  0  0  0
    3.5040   27.9450    8.8580 C   0  0  0  0  0  0  0  0  0  0  0  0
    3.1350   29.1680    8.2980 C   0  0  0  0  0  0  0  0  0  0  0  0
    1.8650   29.7100    8.5300 C   0  0  0  0  0  0  0  0  0  0  0  0
    0.9200   29.0560    9.3340 C   0  0  0  0  0  0  0  0  0  0  0  0
   -0.3190   29.6350    9.6180 N   0  0  0  0  0  0  0  0  0  0  0  0
   -0.3150   30.5470   10.7840 C   0  0  0  0  0  0  0  0  0  0  0  0
   -1.4080   31.5760   10.4830 C   0  0  0  0  0  0  0  0  0  0  0  0
   -2.2310   30.9370    9.3750 C   0  0  0  0  0  0  0  0  0  0  0  0
   -1.1690   30.2000    8.5700 C   0  0  0  0  0  0  0  0  0  0  0  0
    1.3020   27.8090    9.8930 C   0  0  0  0  0  0  0  0  0  0  0  0
    0.3780   26.9540   10.7040 C   0  0  0  0  0  0  0  0  0  0  0  0
   -0.4820   26.2660   10.1630 O   0  0  0  0  0  0  0  0  0  0  0  0
    0.5400   27.0130   12.0700 N   0  0  0  0  0  0  0  0  0  0  0  0
   -0.2140   26.1640   12.9720 C   0  0  0  0  0  0  0  0  0  0  0  0
   -1.4410   26.8780   13.5600 C   0  0  2  0  0  0  0  0  0  0  0  0
   -1.5530   26.6930   15.0680 C   0  0  0  0  0  0  0  0  0  0  0  0
   -2.3960   25.4500   15.1910 C   0  0  0  0  0  0  0  0  0  0  0  0
   -3.3560   25.6120   14.0340 C   0  0  0  0  0  0  0  0  0  0  0  0
   -2.6420   26.2940   12.9970 O   0  0  0  0  0  0  0  0  0  0  0  0
    2.5860   27.2730    9.6600 C   0  0  0  0  0  0  0  0  0  0  0  0
    6.5310   26.2940    7.7320 N   0  0  0  0  0  0  0  0  0  0  0  0
    7.2530   25.3890    6.8260 C   0  0  2  0  0  0  0  0  0  0  0  0
    6.8940   23.9060    7.0860 C   0  0  0  0  0  0  0  0  0  0  0  0
    7.7150   22.9830    6.1690 C   0  0  1  0  0  0  0  0  0  0  0  0
    7.4210   23.3360    4.7000 C   0  0  0  0  0  0  0  0  0  0  0  0
    7.8110   24.7970    4.4200 C   0  0  2  0  0  0  0  0  0  0  0  0
    9.3070   24.9880    4.7090 C   0  0  0  0  0  0  0  0  0  0  0  0
    9.6040   24.6460    6.1770 C   0  0  2  0  0  0  0  0  0  0  0  0
    9.2120   23.1850    6.4500 C   0  0  0  0  0  0  0  0  0  0  0  0
    8.7750   25.5680    7.0870 C   0  0  0  0  0  0  0  0  0  0  0  0
    6.9920   25.7240    5.3350 C   0  0  0  0  0  0  0  0  0  0  0  0
    5.5640   27.9530    9.0550 H   0  0  0  0  0  0  0  0  0  0  0  0
    3.8510   29.7138    7.6659 H   0  0  0  0  0  0  0  0  0  0  0  0
    1.6016   30.6737    8.0698 H   0  0  0  0  0  0  0  0  0  0  0  0
   -0.5462   29.9957   11.7074 H   0  0  0  0  0  0  0  0  0  0  0  0
    0.6668   31.0186   10.9375 H   0  0  0  0  0  0  0  0  0  0  0  0
   -2.0278   31.7579   11.3734 H   0  0  0  0  0  0  0  0  0  0  0  0
   -0.9962   32.5531   10.1904 H   0  0  0  0  0  0  0  0  0  0  0  0
   -2.9770   30.2396    9.7838 H   0  0  0  0  0  0  0  0  0  0  0  0
   -2.8114   31.6599    8.7829 H   0  0  0  0  0  0  0  0  0  0  0  0
   -1.6165   29.4088    7.9505 H   0  0  0  0  0  0  0  0  0  0  0  0
   -0.6264   30.8446    7.8628 H   0  0  0  0  0  0  0  0  0  0  0  0
    1.4380   27.3780   12.3860 H   0  0  0  0  0  0  0  0  0  0  0  0
   -0.5534   25.2753   12.4197 H   0  0  0  0  0  0  0  0  0  0  0  0
    0.4476   25.8911   13.8074 H   0  0  0  0  0  0  0  0  0  0  0  0
   -1.3290   27.9465   13.3237 H   0  0  0  0  0  0  0  0  0  0  0  0
   -0.5626   26.5466   15.5237 H   0  0  0  0  0  0  0  0  0  0  0  0
   -1.9847   27.5642   15.5824 H   0  0  0  0  0  0  0  0  0  0  0  0
   -1.7870   24.5405   15.0818 H   0  0  0  0  0  0  0  0  0  0  0  0
   -2.8898   25.3414   16.1679 H   0  0  0  0  0  0  0  0  0  0  0  0
   -3.6904   24.6262   13.6784 H   0  0  0  0  0  0  0  0  0  0  0  0
   -4.2484   26.1789   14.3377 H   0  0  0  0  0  0  0  0  0  0  0  0
    2.8651   26.3124   10.1176 H   0  0  0  0  0  0  0  0  0  0  0  0
    6.7930   26.2180    8.7040 H   0  0  0  0  0  0  0  0  0  0  0  0
    7.1117   23.6597    8.1357 H   0  0  0  0  0  0  0  0  0  0  0  0
    5.8248   23.7570    6.8748 H   0  0  0  0  0  0  0  0  0  0  0  0
    7.4426   21.9346    6.3605 H   0  0  0  0  0  0  0  0  0  0  0  0
    8.0017   22.6720    4.0429 H   0  0  0  0  0  0  0  0  0  0  0  0
    6.3459   23.2067    4.5066 H   0  0  0  0  0  0  0  0  0  0  0  0
    7.6055   25.0405    3.3671 H   0  0  0  0  0  0  0  0  0  0  0  0
    9.8924   24.3254    4.0545 H   0  0  0  0  0  0  0  0  0  0  0  0
    9.5816   26.0360    4.5187 H   0  0  0  0  0  0  0  0  0  0  0  0
   10.6762   24.7854    6.3793 H   0  0  0  0  0  0  0  0  0  0  0  0
    9.7983   22.5221    5.7967 H   0  0  0  0  0  0  0  0  0  0  0  0
    9.4177   22.9461    7.5039 H   0  0  0  0  0  0  0  0  0  0  0  0
    8.9906   25.3243    8.1378 H   0  0  0  0  0  0  0  0  0  0  0  0
    9.0470   26.6113    6.8689 H   0  0  0  0  0  0  0  0  0  0  0  0
    7.2804   26.7680    5.1433 H   0  0  0  0  0  0  0  0  0  0  0  0
    5.9228   25.5790    5.1210 H   0  0  0  0  0  0  0  0  0  0  0  0
  1  2  2  0
  2  3  1  0
  3  4  1  0
  4  5  2  0
  5  6  1  0
  6  7  2  0
  7  8  1  0
  8  9  1  0
  9 10  1  0
 10 11  1  0
 11 12  1  0
  7 13  1  0
 13 14  1  0
 14 15  2  0
 14 16  1  0
 16 17  1  0
 17 18  1  0
 18 19  1  0
 19 20  1  0
 20 21  1  0
 21 22  1  0
 13 23  2  0
  2 24  1  0
 25 24  1  1
 25 26  1  0
 26 27  1  0
 27 28  1  0
 28 29  1  0
 29 30  1  0
 30 31  1  0
 31 32  1  0
 31 33  1  0
 29 34  1  0
 23  4  1  0
 33 25  1  0
 12  8  1  0
 22 18  1  0
 34 25  1  0
 32 27  1  0
  3 35  1  0
  5 36  1  0
  6 37  1  0
  9 38  1  0
  9 39  1  0
 10 40  1  0
 10 41  1  0
 11 42  1  0
 11 43  1  0
 12 44  1  0
 12 45  1  0
 16 46  1  0
 17 47  1  0
 17 48  1  0
 18 49  1  1
 19 50  1  0
 19 51  1  0
 20 52  1  0
 20 53  1  0
 21 54  1  0
 21 55  1  0
 23 56  1  0
 24 57  1  0
 26 58  1  0
 26 59  1  0
 27 60  1  6
 28 61  1  0
 28 62  1  0
 29 63  1  6
 30 64  1  0
 30 65  1  0
 31 66  1  1
 32 67  1  0
 32 68  1  0
 33 69  1  0
 33 70  1  0
 34 71  1  0
 34 72  1  0
M  END
>  <vina_affinity>  (82) 
-9.169

$$$$
dec_C39379314
     RDKit          3D

 32 34  0  0  0  0  0  0  0  0999 V2000
   -0.1960   29.9750   11.3470 O   0  0  0  0  0  0  0  0  0  0  0  0
   -1.2590   29.7230   10.7850 C   0  0  0  0  0  0  0  0  0  0  0  0
   -2.2110   28.8150   11.2560 N   0  0  0  0  0  0  0  0  0  0  0  0
   -2.0250   27.9610   12.3160 N   0  0  0  0  0  0  0  0  0  0  0  0
   -2.3990   26.7250   12.1900 C   0  0  0  0  0  0  0  0  0  0  0  0
   -2.2570   25.8120   13.3000 C   0  0  0  0  0  0  0  0  0  0  0  0
   -3.1510   25.5280   14.3170 C   0  0  0  0  0  0  0  0  0  0  0  0
   -2.6390   24.5610   15.2320 C   0  0  0  0  0  0  0  0  0  0  0  0
   -1.3810   24.1560   14.8680 C   0  0  0  0  0  0  0  0  0  0  0  0
   -0.3960   23.0100   15.6820 Cl  0  0  0  0  0  0  0  0  0  0  0  0
   -0.8100   24.9070   13.4630 S   0  0  0  0  0  0  0  0  0  0  0  0
   -1.6980   30.3940    9.4900 C   0  0  1  0  0  0  0  0  0  0  0  0
   -2.2670   31.8040    9.7580 C   0  0  0  0  0  0  0  0  0  0  0  0
   -1.2450   32.8240    9.4260 N   0  0  0  0  0  0  0  0  0  0  0  0
   -0.3410   32.1070    8.6000 C   0  0  0  0  0  0  0  0  0  0  0  0
    0.7190   32.6730    7.9170 C   0  0  0  0  0  0  0  0  0  0  0  0
    1.5490   31.8390    7.1630 C   0  0  0  0  0  0  0  0  0  0  0  0
    1.3140   30.4570    7.1190 C   0  0  0  0  0  0  0  0  0  0  0  0
    0.2580   29.8900    7.8360 C   0  0  0  0  0  0  0  0  0  0  0  0
   -0.5530   30.7290    8.5850 C   0  0  0  0  0  0  0  0  0  0  0  0
   -2.8910   28.4640   10.5860 H   0  0  0  0  0  0  0  0  0  0  0  0
   -2.8239   26.3728   11.2385 H   0  0  0  0  0  0  0  0  0  0  0  0
   -4.1429   25.9945   14.4093 H   0  0  0  0  0  0  0  0  0  0  0  0
   -3.1820   24.1893   16.1135 H   0  0  0  0  0  0  0  0  0  0  0  0
   -2.4064   29.6731    9.0558 H   0  0  0  0  0  0  0  0  0  0  0  0
   -3.1591   31.9633    9.1345 H   0  0  0  0  0  0  0  0  0  0  0  0
   -2.5393   31.8921   10.8201 H   0  0  0  0  0  0  0  0  0  0  0  0
   -0.7360   33.1150   10.2630 H   0  0  0  0  0  0  0  0  0  0  0  0
    0.9052   33.7560    7.9659 H   0  0  0  0  0  0  0  0  0  0  0  0
    2.3912   32.2688    6.6009 H   0  0  0  0  0  0  0  0  0  0  0  0
    1.9684   29.8128    6.5133 H   0  0  0  0  0  0  0  0  0  0  0  0
    0.0744   28.8058    7.8072 H   0  0  0  0  0  0  0  0  0  0  0  0
  1  2  2  0
  2  3  1  0
  3  4  1  0
  4  5  2  0
  5  6  1  0
  6  7  2  0
  7  8  1  0
  8  9  2  0
  9 10  1  0
  9 11  1  0
  2 12  1  0
 12 13  1  0
 13 14  1  0
 14 15  1  0
 15 16  2  0
 16 17  1  0
 17 18  2  0
 18 19  1  0
 19 20  2  0
 11  6  1  0
 20 12  1  0
 20 15  1  0
  3 21  1  0
  5 22  1  0
  7 23  1  0
  8 24  1  0
 12 25  1  6
 13 26  1  0
 13 27  1  0
 14 28  1  0
 16 29  1  0
 17 30  1  0
 18 31  1  0
 19 32  1  0
M  END
>  <vina_affinity>  (83) 
-7.603

$$$$
dec_C20407280
     RDKit          3D

 43 44  0  0  0  0  0  0  0  0999 V2000
   -3.2090   20.6830   17.2060 C   0  0  0  0  0  0  0  0  0  0  0  0
   -4.0600   21.8140   16.7850 C   0  0  0  0  0  0  0  0  0  0  0  0
   -5.4220   22.0210   16.7670 C   0  0  0  0  0  0  0  0  0  0  0  0
   -5.6180   23.3220   16.2430 C   0  0  0  0  0  0  0  0  0  0  0  0
   -4.3640   23.8320   15.9730 C   0  0  0  0  0  0  0  0  0  0  0  0
   -3.9230   25.0870   15.4370 C   0  0  0  0  0  0  0  0  0  0  0  0
   -2.6940   25.4800   15.5760 N   0  0  0  0  0  0  0  0  0  0  0  0
   -2.4080   26.6920   15.0190 N   0  0  0  0  0  0  0  0  0  0  0  0
   -2.0130   26.8410   13.7400 C   0  0  0  0  0  0  0  0  0  0  0  0
   -0.8020   26.9680   13.2550 N   0  0  0  0  0  0  0  0  0  0  0  0
   -1.0160   27.0560   11.9090 C   0  0  0  0  0  0  0  0  0  0  0  0
    0.2670   27.1790   10.7390 S   0  0  0  0  0  0  0  0  0  0  0  0
    0.7310   28.9220   10.9640 C   0  0  0  0  0  0  0  0  0  0  0  0
    0.0410   29.8640    9.9840 C   0  0  0  0  0  0  0  0  0  0  0  0
    0.2320   29.7680    8.7740 O   0  0  0  0  0  0  0  0  0  0  0  0
   -0.7210   30.8630   10.5600 N   0  0  0  0  0  0  0  0  0  0  0  0
   -1.5700   31.8040    9.8160 C   0  0  0  0  0  0  0  0  0  0  0  0
   -0.7380   32.6930    8.8770 C   0  0  0  0  0  0  0  0  0  0  0  0
   -2.6420   31.0460    9.0170 C   0  0  0  0  0  0  0  0  0  0  0  0
   -2.2720   32.7160   10.8390 C   0  0  0  0  0  0  0  0  0  0  0  0
   -2.2940   26.9880   11.5230 N   0  0  0  0  0  0  0  0  0  0  0  0
   -2.9100   26.8660   12.7120 N   0  0  0  0  0  0  0  0  0  0  0  0
   -3.4120   22.9100   16.3040 O   0  0  0  0  0  0  0  0  0  0  0  0
   -3.1755   20.6384   18.3046 H   0  0  0  0  0  0  0  0  0  0  0  0
   -3.6265   19.7440   16.8135 H   0  0  0  0  0  0  0  0  0  0  0  0
   -2.1911   20.8240   16.8135 H   0  0  0  0  0  0  0  0  0  0  0  0
   -6.2011   21.3168   17.0941 H   0  0  0  0  0  0  0  0  0  0  0  0
   -6.5817   23.8276   16.0824 H   0  0  0  0  0  0  0  0  0  0  0  0
   -4.6381   25.7269   14.8993 H   0  0  0  0  0  0  0  0  0  0  0  0
   -2.4280   27.5470   15.5780 H   0  0  0  0  0  0  0  0  0  0  0  0
    0.4623   29.2250   11.9867 H   0  0  0  0  0  0  0  0  0  0  0  0
    1.8127   28.9964   10.7787 H   0  0  0  0  0  0  0  0  0  0  0  0
   -0.9590   30.7090   11.5350 H   0  0  0  0  0  0  0  0  0  0  0  0
   -0.1068   33.3674    9.4743 H   0  0  0  0  0  0  0  0  0  0  0  0
   -0.1002   32.0601    8.2425 H   0  0  0  0  0  0  0  0  0  0  0  0
   -1.4117   33.2875    8.2425 H   0  0  0  0  0  0  0  0  0  0  0  0
   -3.3380   30.5539    9.7123 H   0  0  0  0  0  0  0  0  0  0  0  0
   -3.1962   31.7541    8.3834 H   0  0  0  0  0  0  0  0  0  0  0  0
   -2.1591   30.2875    8.3834 H   0  0  0  0  0  0  0  0  0  0  0  0
   -2.0189   32.3872   11.8577 H   0  0  0  0  0  0  0  0  0  0  0  0
   -1.9376   33.7540   10.6950 H   0  0  0  0  0  0  0  0  0  0  0  0
   -3.3610   32.6583   10.6950 H   0  0  0  0  0  0  0  0  0  0  0  0
   -3.9180   26.7920   12.7800 H   0  0  0  0  0  0  0  0  0  0  0  0
  1  2  1  0
  2  3  2  0
  3  4  1  0
  4  5  2  0
  5  6  1  0
  6  7  2  0
  7  8  1  0
  8  9  1  0
  9 10  2  0
 10 11  1  0
 11 12  1  0
 12 13  1  0
 13 14  1  0
 14 15  2  0
 14 16  1  0
 16 17  1  0
 17 18  1  0
 17 19  1  0
 17 20  1  0
 11 21  2  0
 21 22  1  0
  5 23  1  0
 23  2  1  0
 22  9  1  0
  1 24  1  0
  1 25  1  0
  1 26  1  0
  3 27  1  0
  4 28  1  0
  6 29  1  0
  8 30  1  0
 13 31  1  0
 13 32  1  0
 16 33  1  0
 18 34  1  0
 18 35  1  0
 18 36  1  0
 19 37  1  0
 19 38  1  0
 19 39  1  0
 20 40  1  0
 20 41  1  0
 20 42  1  0
 22 43  1  0
M  END
>  <vina_affinity>  (84) 
-7.249

$$$$
dec_C45575459
     RDKit          3D

 48 50  0  0  0  0  0  0  0  0999 V2000
   -6.6390   22.9490   17.4500 C   0  0  0  0  0  0  0  0  0  0  0  0
   -6.2620   22.8290   16.0840 O   0  0  0  0  0  0  0  0  0  0  0  0
   -5.0450   23.3410   15.7240 C   0  0  0  0  0  0  0  0  0  0  0  0
   -4.8230   24.6100   15.1910 C   0  0  0  0  0  0  0  0  0  0  0  0
   -3.5230   25.0220   14.8630 C   0  0  0  0  0  0  0  0  0  0  0  0
   -2.4290   24.1710   15.0610 C   0  0  0  0  0  0  0  0  0  0  0  0
   -1.0300   24.6270   14.7300 C   0  0  0  0  0  0  0  0  0  0  0  0
   -0.9200   26.1490   14.7510 C   0  0  0  0  0  0  0  0  0  0  0  0
   -0.8190   26.7210   13.3540 C   0  0  0  0  0  0  0  0  0  0  0  0
   -0.3500   26.1090   12.3990 O   0  0  0  0  0  0  0  0  0  0  0  0
   -1.3230   28.0070   13.2730 N   0  0  0  0  0  0  0  0  0  0  0  0
   -1.4700   28.5430   12.0020 N   0  0  0  0  0  0  0  0  0  0  0  0
   -2.6480   28.5260   11.3030 C   0  0  0  0  0  0  0  0  0  0  0  0
   -3.6870   27.9470   11.5730 O   0  0  0  0  0  0  0  0  0  0  0  0
   -2.4710   29.3080   10.1740 N   0  0  0  0  0  0  0  0  0  0  0  0
   -1.2120   30.0360   10.2010 C   0  0  0  0  0  0  0  0  0  0  0  0
   -0.3940   29.7450    8.9340 C   0  0  0  0  0  0  0  0  0  0  0  0
    0.5370   30.9020    8.5850 C   0  0  0  0  0  0  0  0  0  0  0  0
   -0.2300   32.2020    8.3430 C   0  0  0  0  0  0  0  0  0  0  0  0
   -1.5220   32.3170    9.1560 C   0  0  0  0  0  0  0  0  0  0  0  0
   -1.4450   31.5350   10.4620 C   0  0  0  0  0  0  0  0  0  0  0  0
   -0.5540   29.3990   11.4450 C   0  0  0  0  0  0  0  0  0  0  0  0
    0.5750   29.6330   11.8620 O   0  0  0  0  0  0  0  0  0  0  0  0
   -2.6520   22.9000   15.6010 C   0  0  0  0  0  0  0  0  0  0  0  0
   -3.9470   22.4980   15.9250 C   0  0  0  0  0  0  0  0  0  0  0  0
   -4.1240   21.2730   16.4410 F   0  0  0  0  0  0  0  0  0  0  0  0
   -5.7870   22.6778   18.0907 H   0  0  0  0  0  0  0  0  0  0  0  0
   -6.9384   23.9868   17.6579 H   0  0  0  0  0  0  0  0  0  0  0  0
   -7.4832   22.2752   17.6579 H   0  0  0  0  0  0  0  0  0  0  0  0
   -5.6711   25.2911   15.0270 H   0  0  0  0  0  0  0  0  0  0  0  0
   -3.3609   26.0265   14.4449 H   0  0  0  0  0  0  0  0  0  0  0  0
   -0.3325   24.2077   15.4701 H   0  0  0  0  0  0  0  0  0  0  0  0
   -0.7824   24.2763   13.7172 H   0  0  0  0  0  0  0  0  0  0  0  0
   -1.8120   26.5643   15.2428 H   0  0  0  0  0  0  0  0  0  0  0  0
   -0.0059   26.4197   15.2998 H   0  0  0  0  0  0  0  0  0  0  0  0
   -1.9750   28.3460   13.9700 H   0  0  0  0  0  0  0  0  0  0  0  0
   -3.2690   29.5340    9.5930 H   0  0  0  0  0  0  0  0  0  0  0  0
    0.2088   28.8398    9.0990 H   0  0  0  0  0  0  0  0  0  0  0  0
   -1.0951   29.6050    8.0980 H   0  0  0  0  0  0  0  0  0  0  0  0
    1.2408   31.0546    9.4165 H   0  0  0  0  0  0  0  0  0  0  0  0
    1.0674   30.6429    7.6568 H   0  0  0  0  0  0  0  0  0  0  0  0
    0.4239   33.0454    8.6097 H   0  0  0  0  0  0  0  0  0  0  0  0
   -0.5174   32.2118    7.2813 H   0  0  0  0  0  0  0  0  0  0  0  0
   -1.7035   33.3771    9.3868 H   0  0  0  0  0  0  0  0  0  0  0  0
   -2.3410   31.8954    8.5548 H   0  0  0  0  0  0  0  0  0  0  0  0
   -0.6139   31.9273   11.0665 H   0  0  0  0  0  0  0  0  0  0  0  0
   -2.4007   31.6512   10.9942 H   0  0  0  0  0  0  0  0  0  0  0  0
   -1.8058   22.2179   15.7700 H   0  0  0  0  0  0  0  0  0  0  0  0
  1  2  1  0
  2  3  1  0
  3  4  2  0
  4  5  1  0
  5  6  2  0
  6  7  1  0
  7  8  1  0
  8  9  1  0
  9 10  2  0
  9 11  1  0
 11 12  1  0
 12 13  1  0
 13 14  2  0
 13 15  1  0
 15 16  1  0
 16 17  1  0
 17 18  1  0
 18 19  1  0
 19 20  1  0
 20 21  1  0
 16 22  1  0
 22 23  2  0
  6 24  1  0
 24 25  2  0
 25 26  1  0
 25  3  1  0
 22 12  1  0
 21 16  1  0
  1 27  1  0
  1 28  1  0
  1 29  1  0
  4 30  1  0
  5 31  1  0
  7 32  1  0
  7 33  1  0
  8 34  1  0
  8 35  1  0
 11 36  1  0
 15 37  1  0
 17 38  1  0
 17 39  1  0
 18 40  1  0
 18 41  1  0
 19 42  1  0
 19 43  1  0
 20 44  1  0
 20 45  1  0
 21 46  1  0
 21 47  1  0
 24 48  1  0
M  END
>  <vina_affinity>  (85) 
-8.134

$$$$
dec_C00420317
     RDKit          3D

 44 46  0  0  0  0  0  0  0  0999 V2000
    6.0120   22.0500    6.7280 C   0  0  0  0  0  0  0  0  0  0  0  0
    6.6170   23.4130    6.8950 C   0  0  0  0  0  0  0  0  0  0  0  0
    7.9440   23.6470    6.5220 C   0  0  0  0  0  0  0  0  0  0  0  0
    8.5250   24.9070    6.7110 C   0  0  0  0  0  0  0  0  0  0  0  0
    9.9360   25.1670    6.2720 C   0  0  0  0  0  0  0  0  0  0  0  0
    7.7580   25.9430    7.2680 C   0  0  0  0  0  0  0  0  0  0  0  0
    6.4380   25.7250    7.6600 C   0  0  0  0  0  0  0  0  0  0  0  0
    5.6090   26.7110    8.2400 N   0  0  0  0  0  0  0  0  0  0  0  0
    4.8330   27.6600    7.5830 C   0  0  0  0  0  0  0  0  0  0  0  0
    4.7370   27.8000    6.3690 O   0  0  0  0  0  0  0  0  0  0  0  0
    4.0750   28.5530    8.5780 C   0  0  0  0  0  0  0  0  0  0  0  0
    3.3210   29.5550    7.9150 O   0  0  0  0  0  0  0  0  0  0  0  0
    2.0190   29.7190    8.2930 C   0  0  0  0  0  0  0  0  0  0  0  0
    1.1040   30.6120    7.7320 C   0  0  0  0  0  0  0  0  0  0  0  0
   -0.2120   30.6800    8.2180 C   0  0  0  0  0  0  0  0  0  0  0  0
   -0.6350   29.8610    9.2710 C   0  0  0  0  0  0  0  0  0  0  0  0
   -1.9950   29.8820    9.8250 C   0  0  0  0  0  0  0  0  0  0  0  0
   -3.0250   30.8180    9.2670 C   0  0  0  0  0  0  0  0  0  0  0  0
   -2.2830   29.0480   10.8360 C   0  0  0  0  0  0  0  0  0  0  0  0
   -1.3090   28.1120   11.4190 C   0  0  0  0  0  0  0  0  0  0  0  0
   -1.6300   27.3730   12.3430 O   0  0  0  0  0  0  0  0  0  0  0  0
   -0.0370   28.1140   10.8760 O   0  0  0  0  0  0  0  0  0  0  0  0
    0.2980   28.9770    9.8140 C   0  0  0  0  0  0  0  0  0  0  0  0
    1.6080   28.8980    9.3410 C   0  0  0  0  0  0  0  0  0  0  0  0
    5.8780   24.4520    7.4760 C   0  0  0  0  0  0  0  0  0  0  0  0
    5.8173   21.6115    7.7178 H   0  0  0  0  0  0  0  0  0  0  0  0
    5.0667   22.1341    6.1719 H   0  0  0  0  0  0  0  0  0  0  0  0
    6.7085   21.4053    6.1719 H   0  0  0  0  0  0  0  0  0  0  0  0
    8.5366   22.8345    6.0763 H   0  0  0  0  0  0  0  0  0  0  0  0
   10.5792   25.2855    7.1564 H   0  0  0  0  0  0  0  0  0  0  0  0
   10.2944   24.3198    5.6689 H   0  0  0  0  0  0  0  0  0  0  0  0
    9.9689   26.0863    5.6689 H   0  0  0  0  0  0  0  0  0  0  0  0
    8.2047   26.9399    7.3968 H   0  0  0  0  0  0  0  0  0  0  0  0
    5.5870   26.7190    9.2510 H   0  0  0  0  0  0  0  0  0  0  0  0
    3.3920   27.9265    9.1705 H   0  0  0  0  0  0  0  0  0  0  0  0
    4.8136   29.0507    9.2236 H   0  0  0  0  0  0  0  0  0  0  0  0
    1.4157   31.2662    6.9044 H   0  0  0  0  0  0  0  0  0  0  0  0
   -0.9211   31.3879    7.7640 H   0  0  0  0  0  0  0  0  0  0  0  0
   -3.5625   31.3064   10.0932 H   0  0  0  0  0  0  0  0  0  0  0  0
   -2.5300   31.5818    8.6492 H   0  0  0  0  0  0  0  0  0  0  0  0
   -3.7381   30.2524    8.6492 H   0  0  0  0  0  0  0  0  0  0  0  0
   -3.3016   29.0650   11.2510 H   0  0  0  0  0  0  0  0  0  0  0  0
    2.3155   28.1885    9.7948 H   0  0  0  0  0  0  0  0  0  0  0  0
    4.8412   24.2664    7.7932 H   0  0  0  0  0  0  0  0  0  0  0  0
  1  2  1  0
  2  3  2  0
  3  4  1  0
  4  5  1  0
  4  6  2  0
  6  7  1  0
  7  8  1  0
  8  9  1  0
  9 10  2  0
  9 11  1  0
 11 12  1  0
 12 13  1  0
 13 14  2  0
 14 15  1  0
 15 16  2  0
 16 17  1  0
 17 18  1  0
 17 19  2  0
 19 20  1  0
 20 21  2  0
 20 22  1  0
 22 23  1  0
 23 24  2  0
  7 25  2  0
 25  2  1  0
 24 13  1  0
 23 16  1  0
  1 26  1  0
  1 27  1  0
  1 28  1  0
  3 29  1  0
  5 30  1  0
  5 31  1  0
  5 32  1  0
  6 33  1  0
  8 34  1  0
 11 35  1  0
 11 36  1  0
 14 37  1  0
 15 38  1  0
 18 39  1  0
 18 40  1  0
 18 41  1  0
 19 42  1  0
 24 43  1  0
 25 44  1  0
M  END
>  <vina_affinity>  (86) 
-8.861

$$$$
dec_C37443717
     RDKit          3D

 66 70  0  0  0  0  0  0  0  0999 V2000
   -0.3950   23.2380   15.4830 C   0  0  0  0  0  0  0  0  0  0  0  0
   -1.6350   24.0060   15.1150 C   0  0  0  0  0  0  0  0  0  0  0  0
   -2.8790   23.3830   15.3360 C   0  0  0  0  0  0  0  0  0  0  0  0
   -4.0750   24.0440   15.0680 C   0  0  0  0  0  0  0  0  0  0  0  0
   -4.0480   25.3440   14.5860 C   0  0  0  0  0  0  0  0  0  0  0  0
   -2.8240   25.9690   14.3490 C   0  0  0  0  0  0  0  0  0  0  0  0
   -1.6000   25.3050   14.5660 C   0  0  0  0  0  0  0  0  0  0  0  0
   -0.3220   26.0720   14.2710 C   0  0  0  0  0  0  0  0  0  0  0  0
   -0.2730   26.7170   12.9590 N   0  0  0  0  0  0  0  0  0  0  0  0
   -0.8420   27.9970   12.8460 C   0  0  0  0  0  0  0  0  0  0  0  0
   -1.5200   28.5060   13.7330 O   0  0  0  0  0  0  0  0  0  0  0  0
   -0.5250   28.7010   11.6160 C   0  0  0  0  0  0  0  0  0  0  0  0
   -0.9820   29.9370   11.1670 C   0  0  0  0  0  0  0  0  0  0  0  0
   -0.3200   30.1190    9.9400 C   0  0  0  0  0  0  0  0  0  0  0  0
   -0.2650   31.0540    8.9570 O   0  0  0  0  0  0  0  0  0  0  0  0
    0.6200   30.5440    8.0520 C   0  0  0  0  0  0  0  0  0  0  0  0
    1.1290   29.3180    8.4230 C   0  0  0  0  0  0  0  0  0  0  0  0
    0.4900   29.0780    9.6560 C   0  0  0  0  0  0  0  0  0  0  0  0
    0.3670   28.1970   10.6900 N   0  0  0  0  0  0  0  0  0  0  0  0
    1.0270   26.9200   10.8410 C   0  0  0  0  0  0  0  0  0  0  0  0
    0.1570   25.9770   11.7200 C   0  0  2  0  0  0  0  0  0  0  0  0
   -1.1070   25.5690   10.9110 C   0  0  0  0  0  0  0  0  0  0  0  0
    1.0240   24.6890   11.9220 C   0  0  0  0  0  0  0  0  0  0  0  0
    2.2400   24.7420   12.1010 O   0  0  0  0  0  0  0  0  0  0  0  0
    0.3520   23.4770   11.8610 N   0  0  0  0  0  0  0  0  0  0  0  0
    1.0820   22.2110   11.8280 C   0  0  2  0  0  0  0  0  0  0  0  0
    1.3860   21.8000   10.3840 C   0  0  0  0  0  0  0  0  0  0  0  0
    2.3290   20.5980   10.3180 C   0  0  0  0  0  0  0  0  0  0  0  0
    2.2940   19.7300   11.5770 C   0  0  0  0  0  0  0  0  0  0  0  0
    0.8920   19.6430   12.1940 C   0  0  2  0  0  0  0  0  0  0  0  0
   -0.0470   18.8590   11.2660 C   0  0  0  0  0  0  0  0  0  0  0  0
    0.3860   21.0600   12.6180 C   0  0  2  0  0  0  0  0  0  0  0  0
   -1.1450   21.1520   12.6590 C   0  0  0  0  0  0  0  0  0  0  0  0
   -0.3084   23.1844   16.5783 H   0  0  0  0  0  0  0  0  0  0  0  0
   -0.4578   22.2204   15.0699 H   0  0  0  0  0  0  0  0  0  0  0  0
    0.4880   23.7476   15.0699 H   0  0  0  0  0  0  0  0  0  0  0  0
   -2.9061   22.3554   15.7275 H   0  0  0  0  0  0  0  0  0  0  0  0
   -5.0365   23.5374   15.2378 H   0  0  0  0  0  0  0  0  0  0  0  0
   -4.9885   25.8802   14.3913 H   0  0  0  0  0  0  0  0  0  0  0  0
   -2.8137   27.0064   13.9835 H   0  0  0  0  0  0  0  0  0  0  0  0
   -0.2080   26.8519   15.0383 H   0  0  0  0  0  0  0  0  0  0  0  0
    0.4890   25.3289   14.2770 H   0  0  0  0  0  0  0  0  0  0  0  0
   -1.6958   30.6144   11.6584 H   0  0  0  0  0  0  0  0  0  0  0  0
    0.8988   31.0591    7.1209 H   0  0  0  0  0  0  0  0  0  0  0  0
    1.8533   28.6848    7.8897 H   0  0  0  0  0  0  0  0  0  0  0  0
    1.1721   26.4647    9.8502 H   0  0  0  0  0  0  0  0  0  0  0  0
    2.0025   27.0709   11.3264 H   0  0  0  0  0  0  0  0  0  0  0  0
   -1.9184   25.3071   11.6060 H   0  0  0  0  0  0  0  0  0  0  0  0
   -1.4242   26.4104   10.2774 H   0  0  0  0  0  0  0  0  0  0  0  0
   -0.8724   24.7009   10.2774 H   0  0  0  0  0  0  0  0  0  0  0  0
   -0.5930   23.4730   11.5080 H   0  0  0  0  0  0  0  0  0  0  0  0
    2.0317   22.3891   12.3538 H   0  0  0  0  0  0  0  0  0  0  0  0
    0.4423   21.5392    9.8826 H   0  0  0  0  0  0  0  0  0  0  0  0
    1.8797   22.6474    9.8858 H   0  0  0  0  0  0  0  0  0  0  0  0
    2.0418   19.9761    9.4574 H   0  0  0  0  0  0  0  0  0  0  0  0
    3.3517   20.9918   10.2228 H   0  0  0  0  0  0  0  0  0  0  0  0
    2.6272   18.7150   11.3147 H   0  0  0  0  0  0  0  0  0  0  0  0
    2.9575   20.1948   12.3211 H   0  0  0  0  0  0  0  0  0  0  0  0
    0.9193   19.0666   13.1305 H   0  0  0  0  0  0  0  0  0  0  0  0
   -0.7524   18.2701   11.8706 H   0  0  0  0  0  0  0  0  0  0  0  0
   -0.6063   19.5621   10.6313 H   0  0  0  0  0  0  0  0  0  0  0  0
    0.5450   18.1832   10.6313 H   0  0  0  0  0  0  0  0  0  0  0  0
    0.7025   21.2108   13.6606 H   0  0  0  0  0  0  0  0  0  0  0  0
   -1.4832   21.1723   13.7055 H   0  0  0  0  0  0  0  0  0  0  0  0
   -1.4708   22.0713   12.1504 H   0  0  0  0  0  0  0  0  0  0  0  0
   -1.5786   20.2783   12.1504 H   0  0  0  0  0  0  0  0  0  0  0  0
  1  2  1  0
  2  3  2  0
  3  4  1  0
  4  5  2  0
  5  6  1  0
  6  7  2  0
  7  8  1  0
  8  9  1  0
  9 10  1  0
 10 11  2  0
 10 12  1  0
 12 13  2  0
 13 14  1  0
 14 15  1  0
 15 16  1  0
 16 17  2  0
 17 18  1  0
 18 19  1  0
 19 20  1  0
 20 21  1  0
 21 22  1  6
 21 23  1  0
 23 24  2  0
 23 25  1  0
 25 26  1  0
 26 27  1  0
 27 28  1  0
 28 29  1  0
 29 30  1  0
 30 31  1  0
 30 32  1  0
 32 33  1  0
  7  2  1  0
 21  9  1  0
 32 26  1  0
 19 12  1  0
 18 14  2  0
  1 34  1  0
  1 35  1  0
  1 36  1  0
  3 37  1  0
  4 38  1  0
  5 39  1  0
  6 40  1  0
  8 41  1  0
  8 42  1  0
 13 43  1  0
 16 44  1  0
 17 45  1  0
 20 46  1  0
 20 47  1  0
 22 48  1  0
 22 49  1  0
 22 50  1  0
 25 51  1  0
 26 52  1  1
 27 53  1  0
 27 54  1  0
 28 55  1  0
 28 56  1  0
 29 57  1  0
 29 58  1  0
 30 59  1  1
 31 60  1  0
 31 61  1  0
 31 62  1  0
 32 63  1  1
 33 64  1  0
 33 65  1  0
 33 66  1  0
M  END
>  <vina_affinity>  (87) 
-8.038

$$$$
dec_C15768746
     RDKit          3D

 41 43  0  0  0  0  0  0  0  0999 V2000
   -1.5200   32.7840    9.7170 N   0  0  0  0  0  0  0  0  0  0  0  0
   -0.8590   32.0430    9.1160 C   0  0  0  0  0  0  0  0  0  0  0  0
    0.0010   31.1330    8.3480 C   0  0  0  0  0  0  0  0  0  0  0  0
   -0.3310   29.6590    8.6150 C   0  0  0  0  0  0  0  0  0  0  0  0
   -0.6340   29.3530   10.0160 N   0  0  0  0  0  0  0  0  0  0  0  0
    0.5540   29.1180   10.8590 C   0  0  1  0  0  0  0  0  0  0  0  0
   -0.0790   28.7850   12.2140 C   0  0  0  0  0  0  0  0  0  0  0  0
   -1.5000   28.3120   11.8630 C   0  0  2  0  0  0  0  0  0  0  0  0
   -1.8910   27.0800   12.5520 C   0  0  0  0  0  0  0  0  0  0  0  0
   -2.1950   26.0950   13.0860 N   0  0  0  0  0  0  0  0  0  0  0  0
   -1.5000   28.2020   10.3240 C   0  0  2  0  0  0  0  0  0  0  0  0
   -0.9130   26.8930    9.7520 C   0  0  0  0  0  0  0  0  0  0  0  0
    0.5270   26.6070   10.1850 C   0  0  0  0  0  0  0  0  0  0  0  0
    1.3230   27.8970   10.3410 C   0  0  0  0  0  0  0  0  0  0  0  0
    2.6000   28.0250   10.1200 N   0  0  0  0  0  0  0  0  0  0  0  0
    3.2490   26.8970    9.7160 N   0  0  0  0  0  0  0  0  0  0  0  0
    3.8300   26.9040    8.4130 C   0  0  0  0  0  0  0  0  0  0  0  0
    4.1390   25.7330    7.7110 C   0  0  0  0  0  0  0  0  0  0  0  0
    4.6380   25.7890    6.4070 C   0  0  0  0  0  0  0  0  0  0  0  0
    4.8110   27.0200    5.7770 C   0  0  0  0  0  0  0  0  0  0  0  0
    4.4800   28.1930    6.4500 C   0  0  0  0  0  0  0  0  0  0  0  0
    3.9820   28.1340    7.7550 C   0  0  0  0  0  0  0  0  0  0  0  0
   -0.1343   31.3381    7.2758 H   0  0  0  0  0  0  0  0  0  0  0  0
    1.0412   31.3070    8.6605 H   0  0  0  0  0  0  0  0  0  0  0  0
   -1.2058   29.3872    8.0061 H   0  0  0  0  0  0  0  0  0  0  0  0
    0.5680   29.0814    8.3538 H   0  0  0  0  0  0  0  0  0  0  0  0
    1.2607   29.9606   10.8835 H   0  0  0  0  0  0  0  0  0  0  0  0
    0.4832   27.9871   12.7213 H   0  0  0  0  0  0  0  0  0  0  0  0
   -0.0795   29.6445   12.9005 H   0  0  0  0  0  0  0  0  0  0  0  0
   -2.2673   29.0186   12.2121 H   0  0  0  0  0  0  0  0  0  0  0  0
   -2.5099   28.1966    9.8879 H   0  0  0  0  0  0  0  0  0  0  0  0
   -1.5456   26.0571   10.0854 H   0  0  0  0  0  0  0  0  0  0  0  0
   -0.8966   27.0065    8.6580 H   0  0  0  0  0  0  0  0  0  0  0  0
    0.5131   26.0755   11.1480 H   0  0  0  0  0  0  0  0  0  0  0  0
    1.0081   25.9929    9.4094 H   0  0  0  0  0  0  0  0  0  0  0  0
    2.6660   26.0580    9.7790 H   0  0  0  0  0  0  0  0  0  0  0  0
    3.9870   24.7557    8.1923 H   0  0  0  0  0  0  0  0  0  0  0  0
    4.8947   24.8600    5.8769 H   0  0  0  0  0  0  0  0  0  0  0  0
    5.2075   27.0647    4.7519 H   0  0  0  0  0  0  0  0  0  0  0  0
    4.6104   29.1665    5.9548 H   0  0  0  0  0  0  0  0  0  0  0  0
    3.7056   29.0643    8.2729 H   0  0  0  0  0  0  0  0  0  0  0  0
  1  2  3  0
  2  3  1  0
  3  4  1  0
  4  5  1  0
  5  6  1  0
  6  7  1  0
  7  8  1  0
  8  9  1  0
  9 10  3  0
  8 11  1  0
 11 12  1  0
 12 13  1  0
 13 14  1  0
 14 15  2  0
 15 16  1  0
 16 17  1  0
 17 18  2  0
 18 19  1  0
 19 20  2  0
 20 21  1  0
 21 22  2  0
 11  5  1  0
 22 17  1  0
 14  6  1  0
  3 23  1  0
  3 24  1  0
  4 25  1  0
  4 26  1  0
  6 27  1  1
  7 28  1  0
  7 29  1  0
  8 30  1  6
 11 31  1  6
 12 32  1  0
 12 33  1  0
 13 34  1  0
 13 35  1  0
 16 36  1  0
 18 37  1  0
 19 38  1  0
 20 39  1  0
 21 40  1  0
 22 41  1  0
M  END
>  <vina_affinity>  (88) 
-7.335

$$$$
dec_C20307895
     RDKit          3D

 28 28  0  0  0  0  0  0  0  0999 V2000
   -1.1420   26.0290    9.7890 C   0  0  0  0  0  0  0  0  0  0  0  0
   -0.4830   27.4050    9.7670 C   0  0  1  0  0  0  0  0  0  0  0  0
   -1.5280   28.4660    9.8170 N   0  0  0  0  0  0  0  0  0  0  0  0
   -1.1960   29.7810    9.4650 C   0  0  0  0  0  0  0  0  0  0  0  0
   -0.2160   30.0990    8.5170 C   0  0  0  0  0  0  0  0  0  0  0  0
    0.1280   31.4310    8.2610 C   0  0  0  0  0  0  0  0  0  0  0  0
    1.3260   31.7860    7.0760 Cl  0  0  0  0  0  0  0  0  0  0  0  0
   -0.4730   32.4710    8.9590 C   0  0  0  0  0  0  0  0  0  0  0  0
   -1.4140   32.1640    9.9340 C   0  0  0  0  0  0  0  0  0  0  0  0
   -2.1520   33.4320   10.8350 Cl  0  0  0  0  0  0  0  0  0  0  0  0
   -1.7630   30.8370   10.1960 C   0  0  0  0  0  0  0  0  0  0  0  0
    0.4620   27.5890   10.9710 C   0  0  0  0  0  0  0  0  0  0  0  0
    1.5290   28.1940   10.9220 O   0  0  0  0  0  0  0  0  0  0  0  0
   -0.0290   26.9980   12.1170 N   0  0  0  0  0  0  0  0  0  0  0  0
   -0.7700   27.8030   12.9280 C   0  0  0  0  0  0  0  0  0  0  0  0
   -1.3820   27.1060   13.9270 N   0  0  0  0  0  0  0  0  0  0  0  0
   -0.9350   29.0070   12.8140 O   0  0  0  0  0  0  0  0  0  0  0  0
   -1.2939   25.7118   10.8313 H   0  0  0  0  0  0  0  0  0  0  0  0
   -2.1136   26.0795    9.2758 H   0  0  0  0  0  0  0  0  0  0  0  0
   -0.4936   25.3036    9.2758 H   0  0  0  0  0  0  0  0  0  0  0  0
    0.1002   27.4839    8.8377 H   0  0  0  0  0  0  0  0  0  0  0  0
   -2.3810   28.1540    9.3500 H   0  0  0  0  0  0  0  0  0  0  0  0
    0.2897   29.2919    7.9667 H   0  0  0  0  0  0  0  0  0  0  0  0
   -0.2090   33.5170    8.7440 H   0  0  0  0  0  0  0  0  0  0  0  0
   -2.4938   30.6159   10.9878 H   0  0  0  0  0  0  0  0  0  0  0  0
   -0.6140   26.2040   11.8690 H   0  0  0  0  0  0  0  0  0  0  0  0
   -1.8340   27.7140   14.6010 H   0  0  0  0  0  0  0  0  0  0  0  0
   -0.8340   26.3690   14.3500 H   0  0  0  0  0  0  0  0  0  0  0  0
  1  2  1  0
  2  3  1  0
  3  4  1  0
  4  5  2  0
  5  6  1  0
  6  7  1  0
  6  8  2  0
  8  9  1  0
  9 10  1  0
  9 11  2  0
  2 12  1  0
 12 13  2  0
 12 14  1  0
 14 15  1  0
 15 16  1  0
 15 17  2  0
 11  4  1  0
  1 18  1  0
  1 19  1  0
  1 20  1  0
  2 21  1  6
  3 22  1  0
  5 23  1  0
  8 24  1  0
 11 25  1  0
 14 26  1  0
 16 27  1  0
 16 28  1  0
M  END
>  <vina_affinity>  (89) 
-7.115

$$$$
dec_C40812764
     RDKit          3D

 68 71  0  0  0  0  0  0  0  0999 V2000
   -1.5190   26.7070   14.2140 C   0  0  0  0  0  0  0  0  0  0  0  0
   -0.7660   25.5670   13.6250 C   0  0  0  0  0  0  0  0  0  0  0  0
   -0.7220   24.2380   14.0550 C   0  0  0  0  0  0  0  0  0  0  0  0
   -1.4020   23.5040   15.1050 C   0  0  0  0  0  0  0  0  0  0  0  0
   -0.8390   22.9700   16.0590 O   0  0  0  0  0  0  0  0  0  0  0  0
   -2.7790   23.3950   14.9610 N   0  0  0  0  0  0  0  0  0  0  0  0
   -3.5780   22.6610   15.9260 C   0  0  0  0  0  0  0  0  0  0  0  0
   -4.5100   23.6110   16.6960 C   0  0  0  0  0  0  0  0  0  0  0  0
   -5.7290   22.9350   17.3510 C   0  0  0  0  0  0  0  0  0  0  0  0
   -5.9490   23.4950   18.7670 C   0  0  0  0  0  0  0  0  0  0  0  0
   -7.0150   23.1540   16.5440 C   0  0  0  0  0  0  0  0  0  0  0  0
   -5.4780   21.4530   17.5130 N   0  0  0  0  0  0  0  0  0  0  0  0
   -5.0430   20.6350   16.3090 C   0  0  0  0  0  0  0  0  0  0  0  0
   -4.0650   19.5680   16.8360 C   0  0  0  0  0  0  0  0  0  0  0  0
   -6.2670   19.9240   15.7190 C   0  0  0  0  0  0  0  0  0  0  0  0
   -4.3600   21.5340   15.2640 C   0  0  0  0  0  0  0  0  0  0  0  0
    0.1710   23.5310   13.2860 O   0  0  0  0  0  0  0  0  0  0  0  0
    0.6450   24.3810   12.3550 C   0  0  0  0  0  0  0  0  0  0  0  0
    0.1020   25.6340   12.4910 C   0  0  0  0  0  0  0  0  0  0  0  0
    0.4790   26.6890   11.5660 C   0  0  0  0  0  0  0  0  0  0  0  0
   -0.1090   27.8310   11.7280 N   0  0  0  0  0  0  0  0  0  0  0  0
    0.2420   28.8940   10.9560 N   0  0  0  0  0  0  0  0  0  0  0  0
   -0.6440   29.3490    9.9910 C   0  0  0  0  0  0  0  0  0  0  0  0
   -1.7090   28.7980    9.7200 O   0  0  0  0  0  0  0  0  0  0  0  0
   -0.2330   30.5560    9.2120 C   0  0  0  0  0  0  0  0  0  0  0  0
    0.7710   30.3510    8.2450 C   0  0  0  0  0  0  0  0  0  0  0  0
    1.2420   31.4050    7.4610 C   0  0  0  0  0  0  0  0  0  0  0  0
    0.7130   32.6800    7.6250 C   0  0  0  0  0  0  0  0  0  0  0  0
   -0.2920   32.8980    8.5680 C   0  0  0  0  0  0  0  0  0  0  0  0
   -0.7700   31.8430    9.3590 C   0  0  0  0  0  0  0  0  0  0  0  0
   -2.0470   32.2360   10.4600 Cl  0  0  0  0  0  0  0  0  0  0  0  0
    1.5570   26.3540   10.5330 C   0  0  0  0  0  0  0  0  0  0  0  0
    1.5610   24.8620   10.1410 C   0  0  0  0  0  0  0  0  0  0  0  0
    1.6300   23.9180   11.3540 C   0  0  0  0  0  0  0  0  0  0  0  0
   -1.4783   26.6454   15.3115 H   0  0  0  0  0  0  0  0  0  0  0  0
   -1.0683   27.6543   13.8830 H   0  0  0  0  0  0  0  0  0  0  0  0
   -2.5671   26.6642   13.8830 H   0  0  0  0  0  0  0  0  0  0  0  0
   -3.1860   23.7260   14.0930 H   0  0  0  0  0  0  0  0  0  0  0  0
   -2.8903   22.1978   16.6489 H   0  0  0  0  0  0  0  0  0  0  0  0
   -3.9226   24.0977   17.4885 H   0  0  0  0  0  0  0  0  0  0  0  0
   -4.9110   24.3175   15.9543 H   0  0  0  0  0  0  0  0  0  0  0  0
   -5.6524   22.7401   19.5100 H   0  0  0  0  0  0  0  0  0  0  0  0
   -5.3400   24.4011   18.9017 H   0  0  0  0  0  0  0  0  0  0  0  0
   -7.0119   23.7443   18.9017 H   0  0  0  0  0  0  0  0  0  0  0  0
   -7.8603   23.2979   17.2331 H   0  0  0  0  0  0  0  0  0  0  0  0
   -6.9027   24.0459   15.9101 H   0  0  0  0  0  0  0  0  0  0  0  0
   -7.2042   22.2752   15.9101 H   0  0  0  0  0  0  0  0  0  0  0  0
   -4.7570   21.3540   18.2450 H   0  0  0  0  0  0  0  0  0  0  0  0
   -6.3110   21.0160   17.9350 H   0  0  0  0  0  0  0  0  0  0  0  0
   -4.0719   19.5756   17.9360 H   0  0  0  0  0  0  0  0  0  0  0  0
   -4.3744   18.5764   16.4742 H   0  0  0  0  0  0  0  0  0  0  0  0
   -3.0502   19.7901   16.4742 H   0  0  0  0  0  0  0  0  0  0  0  0
   -6.9047   19.5536   16.5352 H   0  0  0  0  0  0  0  0  0  0  0  0
   -6.8383   20.6308   15.0993 H   0  0  0  0  0  0  0  0  0  0  0  0
   -5.9360   19.0776   15.0993 H   0  0  0  0  0  0  0  0  0  0  0  0
   -3.6692   20.9237   14.6637 H   0  0  0  0  0  0  0  0  0  0  0  0
   -5.1395   21.9802   14.6290 H   0  0  0  0  0  0  0  0  0  0  0  0
    1.0690   29.4360   11.1790 H   0  0  0  0  0  0  0  0  0  0  0  0
    1.1904   29.3437    8.1058 H   0  0  0  0  0  0  0  0  0  0  0  0
    2.0303   31.2272    6.7147 H   0  0  0  0  0  0  0  0  0  0  0  0
    1.0856   33.5147    7.0131 H   0  0  0  0  0  0  0  0  0  0  0  0
   -0.7133   33.9065    8.6922 H   0  0  0  0  0  0  0  0  0  0  0  0
    1.3777   26.9550    9.6293 H   0  0  0  0  0  0  0  0  0  0  0  0
    2.5335   26.5819   10.9852 H   0  0  0  0  0  0  0  0  0  0  0  0
    0.6395   24.6450    9.5808 H   0  0  0  0  0  0  0  0  0  0  0  0
    2.4628   24.6847    9.5365 H   0  0  0  0  0  0  0  0  0  0  0  0
    1.3889   22.8913   11.0413 H   0  0  0  0  0  0  0  0  0  0  0  0
    2.6422   23.9253   11.7846 H   0  0  0  0  0  0  0  0  0  0  0  0
  1  2  1  0
  2  3  2  0
  3  4  1  0
  4  5  2  0
  4  6  1  0
  6  7  1  0
  7  8  1  0
  8  9  1  0
  9 10  1  0
  9 11  1  0
  9 12  1  0
 12 13  1  0
 13 14  1  0
 13 15  1  0
 13 16  1  0
  3 17  1  0
 17 18  1  0
 18 19  2  0
 19 20  1  0
 20 21  2  0
 21 22  1  0
 22 23  1  0
 23 24  2  0
 23 25  1  0
 25 26  2  0
 26 27  1  0
 27 28  2  0
 28 29  1  0
 29 30  2  0
 30 31  1  0
 20 32  1  0
 32 33  1  0
 33 34  1  0
 19  2  1  0
 30 25  1  0
 16  7  1  0
 34 18  1  0
  1 35  1  0
  1 36  1  0
  1 37  1  0
  6 38  1  0
  7 39  1  0
  8 40  1  0
  8 41  1  0
 10 42  1  0
 10 43  1  0
 10 44  1  0
 11 45  1  0
 11 46  1  0
 11 47  1  0
 12 48  1  0
 12 49  1  0
 14 50  1  0
 14 51  1  0
 14 52  1  0
 15 53  1  0
 15 54  1  0
 15 55  1  0
 16 56  1  0
 16 57  1  0
 22 58  1  0
 26 59  1  0
 27 60  1  0
 28 61  1  0
 29 62  1  0
 32 63  1  0
 32 64  1  0
 33 65  1  0
 33 66  1  0
 34 67  1  0
 34 68  1  0
M  CHG  1  12   1
M  END
>  <vina_affinity>  (90) 
-9.658

$$$$
dec_C50164409
     RDKit          3D

 36 36  0  0  0  0  0  0  0  0999 V2000
   -1.4610   32.7310    9.9680 C   0  0  0  0  0  0  0  0  0  0  0  0
   -2.6450   31.7830   10.0860 C   0  0  0  0  0  0  0  0  0  0  0  0
   -2.3670   30.4520    9.3830 C   0  0  0  0  0  0  0  0  0  0  0  0
   -0.9220   29.9630    9.5960 C   0  0  2  0  0  0  0  0  0  0  0  0
   -0.2490   29.7060    8.2350 C   0  0  0  0  0  0  0  0  0  0  0  0
    1.2320   30.0630    8.2140 C   0  0  0  0  0  0  0  0  0  0  0  0
   -0.9260   28.7530   10.4140 N   0  0  0  0  0  0  0  0  0  0  0  0
   -0.1450   28.6160   11.5380 C   0  0  0  0  0  0  0  0  0  0  0  0
    0.5900   29.4900   11.9810 O   0  0  0  0  0  0  0  0  0  0  0  0
   -0.2990   27.3500   12.2980 C   0  0  0  0  0  0  0  0  0  0  0  0
   -1.1640   27.4220   13.4050 C   0  0  0  0  0  0  0  0  0  0  0  0
   -1.3940   26.2860   14.1890 C   0  0  0  0  0  0  0  0  0  0  0  0
   -2.3070   26.3630   15.3360 N   0  0  0  0  0  0  0  0  0  0  0  0
   -2.2180   27.3520   16.0770 O   0  0  0  0  0  0  0  0  0  0  0  0
   -3.1050   25.4290   15.5000 O   0  0  0  0  0  0  0  0  0  0  0  0
   -0.7620   25.0760   13.8860 C   0  0  0  0  0  0  0  0  0  0  0  0
    0.1090   25.0080   12.7960 C   0  0  0  0  0  0  0  0  0  0  0  0
    0.3500   26.1400   12.0000 C   0  0  0  0  0  0  0  0  0  0  0  0
    1.7530   25.8970   10.4610 I   0  0  0  0  0  0  0  0  0  0  0  0
   -1.1128   33.0098   10.9735 H   0  0  0  0  0  0  0  0  0  0  0  0
   -0.6457   32.2332    9.4226 H   0  0  0  0  0  0  0  0  0  0  0  0
   -1.7684   33.6354    9.4226 H   0  0  0  0  0  0  0  0  0  0  0  0
   -2.8448   31.5906   11.1505 H   0  0  0  0  0  0  0  0  0  0  0  0
   -3.5148   32.2538    9.6045 H   0  0  0  0  0  0  0  0  0  0  0  0
   -3.0581   29.6931    9.7784 H   0  0  0  0  0  0  0  0  0  0  0  0
   -2.5116   30.6075    8.3037 H   0  0  0  0  0  0  0  0  0  0  0  0
   -0.3463   30.7375   10.1239 H   0  0  0  0  0  0  0  0  0  0  0  0
   -0.3536   28.6386    7.9905 H   0  0  0  0  0  0  0  0  0  0  0  0
   -0.7489   30.3527    7.4989 H   0  0  0  0  0  0  0  0  0  0  0  0
    1.6023   30.1523    9.2459 H   0  0  0  0  0  0  0  0  0  0  0  0
    1.7919   29.2741    7.6904 H   0  0  0  0  0  0  0  0  0  0  0  0
    1.3710   31.0204    7.6904 H   0  0  0  0  0  0  0  0  0  0  0  0
   -1.4530   27.9570   10.0790 H   0  0  0  0  0  0  0  0  0  0  0  0
   -1.6598   28.3717   13.6544 H   0  0  0  0  0  0  0  0  0  0  0  0
   -0.9494   24.1839   14.5017 H   0  0  0  0  0  0  0  0  0  0  0  0
    0.6111   24.0585   12.5587 H   0  0  0  0  0  0  0  0  0  0  0  0
  1  2  1  0
  2  3  1  0
  3  4  1  0
  4  5  1  0
  5  6  1  0
  4  7  1  0
  7  8  1  0
  8  9  2  0
  8 10  1  0
 10 11  2  0
 11 12  1  0
 12 13  1  0
 13 14  2  0
 13 15  1  0
 12 16  2  0
 16 17  1  0
 17 18  2  0
 18 19  1  0
 18 10  1  0
  1 20  1  0
  1 21  1  0
  1 22  1  0
  2 23  1  0
  2 24  1  0
  3 25  1  0
  3 26  1  0
  4 27  1  1
  5 28  1  0
  5 29  1  0
  6 30  1  0
  6 31  1  0
  6 32  1  0
  7 33  1  0
 11 34  1  0
 16 35  1  0
 17 36  1  0
M  CHG  2  13   1  15  -1
M  END
>  <vina_affinity>  (91) 
-6.683

$$$$
dec_C19845586
     RDKit          3D

 32 33  0  0  0  0  0  0  0  0999 V2000
    0.3540   29.6860   11.9590 C   0  0  0  0  0  0  0  0  0  0  0  0
    0.1180   28.4500   11.1020 C   0  0  0  0  0  0  0  0  0  0  0  0
   -0.3760   28.8270    9.7030 C   0  0  0  0  0  0  0  0  0  0  0  0
    0.6900   29.5380    8.9010 C   0  0  0  0  0  0  0  0  0  0  0  0
    0.4010   30.6440    8.1980 C   0  0  0  0  0  0  0  0  0  0  0  0
    1.4820   31.2870    7.4350 C   0  0  0  0  0  0  0  0  0  0  0  0
    1.2980   32.3400    6.8380 O   0  0  0  0  0  0  0  0  0  0  0  0
    2.6710   30.6320    7.4610 N   0  0  0  0  0  0  0  0  0  0  0  0
    2.8660   29.5270    8.2310 C   0  0  0  0  0  0  0  0  0  0  0  0
    4.4680   28.8470    8.1940 S   0  0  0  0  0  0  0  0  0  0  0  0
    4.3660   27.7020    6.8400 C   0  0  0  0  0  0  0  0  0  0  0  0
    4.1650   28.1700    5.5500 C   0  0  0  0  0  0  0  0  0  0  0  0
    4.1050   27.2490    4.5020 C   0  0  0  0  0  0  0  0  0  0  0  0
    4.2120   25.8850    4.7610 C   0  0  0  0  0  0  0  0  0  0  0  0
    4.2800   24.9660    3.7110 N   0  0  0  0  0  0  0  0  0  0  0  0
    4.4810   25.5250    6.0800 C   0  0  0  0  0  0  0  0  0  0  0  0
    4.5390   26.3890    7.1260 N   0  0  0  0  0  0  0  0  0  0  0  0
    1.9410   28.9610    8.9320 N   0  0  0  0  0  0  0  0  0  0  0  0
    0.3013   29.4102   13.0226 H   0  0  0  0  0  0  0  0  0  0  0  0
    1.3478   30.1019   11.7368 H   0  0  0  0  0  0  0  0  0  0  0  0
   -0.4166   30.4388   11.7368 H   0  0  0  0  0  0  0  0  0  0  0  0
    1.0618   27.8925   11.0102 H   0  0  0  0  0  0  0  0  0  0  0  0
   -0.6533   27.8340   11.5874 H   0  0  0  0  0  0  0  0  0  0  0  0
   -0.6694   27.9103    9.1705 H   0  0  0  0  0  0  0  0  0  0  0  0
   -1.2302   29.5108    9.8160 H   0  0  0  0  0  0  0  0  0  0  0  0
   -0.6177   31.0590    8.1924 H   0  0  0  0  0  0  0  0  0  0  0  0
    3.4700   31.0550    7.0030 H   0  0  0  0  0  0  0  0  0  0  0  0
    4.0548   29.2471    5.3559 H   0  0  0  0  0  0  0  0  0  0  0  0
    3.9728   27.6021    3.4686 H   0  0  0  0  0  0  0  0  0  0  0  0
    5.1050   25.0580    3.1270 H   0  0  0  0  0  0  0  0  0  0  0  0
    3.4290   24.8900    3.1610 H   0  0  0  0  0  0  0  0  0  0  0  0
    4.6599   24.4601    6.2898 H   0  0  0  0  0  0  0  0  0  0  0  0
  1  2  1  0
  2  3  1  0
  3  4  1  0
  4  5  2  0
  5  6  1  0
  6  7  2  0
  6  8  1  0
  8  9  1  0
  9 10  1  0
 10 11  1  0
 11 12  2  0
 12 13  1  0
 13 14  2  0
 14 15  1  0
 14 16  1  0
 16 17  2  0
  9 18  2  0
 18  4  1  0
 17 11  1  0
  1 19  1  0
  1 20  1  0
  1 21  1  0
  2 22  1  0
  2 23  1  0
  3 24  1  0
  3 25  1  0
  5 26  1  0
  8 27  1  0
 12 28  1  0
 13 29  1  0
 15 30  1  0
 15 31  1  0
 16 32  1  0
M  END
>  <vina_affinity>  (92) 
-6.937

$$$$
dec_C66402587
     RDKit          3D

 45 47  0  0  0  0  0  0  0  0999 V2000
   -1.7320   27.2210   11.9930 O   0  0  0  0  0  0  0  0  0  0  0  0
   -0.7410   27.6070   12.6060 C   0  0  0  0  0  0  0  0  0  0  0  0
   -0.3950   27.0960   13.8360 N   0  0  0  0  0  0  0  0  0  0  0  0
   -1.2380   26.1550   14.5630 C   0  0  0  0  0  0  0  0  0  0  0  0
   -0.9200   24.6850   14.2610 C   0  0  0  0  0  0  0  0  0  0  0  0
   -1.8570   23.7270   14.8990 C   0  0  0  0  0  0  0  0  0  0  0  0
   -1.6900   22.4330   15.3380 C   0  0  0  0  0  0  0  0  0  0  0  0
   -2.9080   22.0030   15.8380 N   0  0  0  0  0  0  0  0  0  0  0  0
   -3.8170   22.9830   15.7110 C   0  0  0  0  0  0  0  0  0  0  0  0
   -3.1860   24.0110   15.1500 N   0  0  0  0  0  0  0  0  0  0  0  0
   -5.2340   22.8870   16.1580 C   0  0  0  0  0  0  0  0  0  0  0  0
   -5.6440   21.4510   16.4690 C   0  0  0  0  0  0  0  0  0  0  0  0
   -4.5200   20.7200   17.2110 C   0  0  0  0  0  0  0  0  0  0  0  0
   -3.2310   20.6820   16.3830 C   0  0  0  0  0  0  0  0  0  0  0  0
    0.1600   28.5390   12.1720 N   0  0  0  0  0  0  0  0  0  0  0  0
    0.1410   29.2940   11.0180 C   0  0  0  0  0  0  0  0  0  0  0  0
   -0.6260   30.3690   10.7700 C   0  0  0  0  0  0  0  0  0  0  0  0
   -0.5580   31.0900    9.5030 C   0  0  0  0  0  0  0  0  0  0  0  0
   -1.4670   32.2720    9.3250 C   0  0  0  0  0  0  0  0  0  0  0  0
   -0.8560   33.2690    8.6330 F   0  0  0  0  0  0  0  0  0  0  0  0
   -1.8780   32.8040   10.5030 F   0  0  0  0  0  0  0  0  0  0  0  0
   -2.5840   31.9430    8.6270 F   0  0  0  0  0  0  0  0  0  0  0  0
    0.3050   30.6690    8.5620 C   0  0  0  0  0  0  0  0  0  0  0  0
    1.1070   29.5780    8.7840 N   0  0  0  0  0  0  0  0  0  0  0  0
    1.1010   28.8440    9.9440 C   0  0  0  0  0  0  0  0  0  0  0  0
    1.8250   27.8690   10.1280 O   0  0  0  0  0  0  0  0  0  0  0  0
    0.1870   27.7010   14.4030 H   0  0  0  0  0  0  0  0  0  0  0  0
   -1.1006   26.3261   15.6409 H   0  0  0  0  0  0  0  0  0  0  0  0
   -2.2741   26.3338   14.2395 H   0  0  0  0  0  0  0  0  0  0  0  0
   -0.9615   24.5377   13.1717 H   0  0  0  0  0  0  0  0  0  0  0  0
    0.0785   24.4812   14.6752 H   0  0  0  0  0  0  0  0  0  0  0  0
   -0.7595   21.8476   15.2989 H   0  0  0  0  0  0  0  0  0  0  0  0
   -3.6280   24.9200   14.9450 H   0  0  0  0  0  0  0  0  0  0  0  0
   -5.3614   23.4961   17.0651 H   0  0  0  0  0  0  0  0  0  0  0  0
   -5.8719   23.2505   15.3389 H   0  0  0  0  0  0  0  0  0  0  0  0
   -6.5464   21.4605   17.0979 H   0  0  0  0  0  0  0  0  0  0  0  0
   -5.8458   20.9262   15.5235 H   0  0  0  0  0  0  0  0  0  0  0  0
   -4.3203   21.2406   18.1592 H   0  0  0  0  0  0  0  0  0  0  0  0
   -4.8435   19.6845   17.3928 H   0  0  0  0  0  0  0  0  0  0  0  0
   -2.4028   20.3471   17.0248 H   0  0  0  0  0  0  0  0  0  0  0  0
   -3.3787   19.9871   15.5432 H   0  0  0  0  0  0  0  0  0  0  0  0
    1.0180   28.6510   12.7070 H   0  0  0  0  0  0  0  0  0  0  0  0
   -1.3257   30.7158   11.5447 H   0  0  0  0  0  0  0  0  0  0  0  0
    0.3689   31.2051    7.6036 H   0  0  0  0  0  0  0  0  0  0  0  0
    1.7560   29.2690    8.0670 H   0  0  0  0  0  0  0  0  0  0  0  0
  1  2  2  0
  2  3  1  0
  3  4  1  0
  4  5  1  0
  5  6  1  0
  6  7  2  0
  7  8  1  0
  8  9  1  0
  9 10  2  0
  9 11  1  0
 11 12  1  0
 12 13  1  0
 13 14  1  0
  2 15  1  0
 15 16  1  0
 16 17  2  0
 17 18  1  0
 18 19  1  0
 19 20  1  0
 19 21  1  0
 19 22  1  0
 18 23  2  0
 23 24  1  0
 24 25  1  0
 25 26  2  0
 10  6  1  0
 25 16  1  0
 14  8  1  0
  3 27  1  0
  4 28  1  0
  4 29  1  0
  5 30  1  0
  5 31  1  0
  7 32  1  0
 10 33  1  0
 11 34  1  0
 11 35  1  0
 12 36  1  0
 12 37  1  0
 13 38  1  0
 13 39  1  0
 14 40  1  0
 14 41  1  0
 15 42  1  0
 17 43  1  0
 23 44  1  0
 24 45  1  0
M  CHG  1  10   1
M  END
>  <vina_affinity>  (93) 
-8.753

$$$$
dec_C37542521
     RDKit          3D

 36 37  0  0  0  0  0  0  0  0999 V2000
   -2.6450   32.2610   11.0130 N   0  0  0  0  0  0  0  0  0  0  0  0
   -1.9740   31.9270    9.8730 C   0  0  0  0  0  0  0  0  0  0  0  0
   -1.2470   32.7400    9.3090 O   0  0  0  0  0  0  0  0  0  0  0  0
   -2.2470   30.5230    9.3250 C   0  0  0  0  0  0  0  0  0  0  0  0
   -1.3460   29.5130    9.9100 N   0  0  0  0  0  0  0  0  0  0  0  0
    0.0120   29.7470   10.1810 C   0  0  0  0  0  0  0  0  0  0  0  0
    0.3540   29.9730   11.3460 O   0  0  0  0  0  0  0  0  0  0  0  0
    0.9990   29.7220    9.1130 C   0  0  0  0  0  0  0  0  0  0  0  0
    1.0110   30.3950    7.9030 C   0  0  0  0  0  0  0  0  0  0  0  0
    2.2300   30.0680    7.2580 C   0  0  0  0  0  0  0  0  0  0  0  0
    2.9020   29.2340    8.1190 C   0  0  0  0  0  0  0  0  0  0  0  0
    4.6110   28.4640    7.8040 Br  0  0  0  0  0  0  0  0  0  0  0  0
    2.1710   29.0280    9.2460 O   0  0  0  0  0  0  0  0  0  0  0  0
   -1.9310   28.1870   10.1960 C   0  0  0  0  0  0  0  0  0  0  0  0
   -2.5930   28.1060   11.5860 C   0  0  0  0  0  0  0  0  0  0  0  0
   -1.8780   27.1560   12.5300 C   0  0  0  0  0  0  0  0  0  0  0  0
   -1.7650   25.7920   11.9210 N   0  0  0  0  0  0  0  0  0  0  0  0
   -1.5200   25.7300   10.4460 C   0  0  0  0  0  0  0  0  0  0  0  0
   -0.9400   27.0350    9.9450 C   0  0  0  0  0  0  0  0  0  0  0  0
   -2.9280   31.5430   11.6700 H   0  0  0  0  0  0  0  0  0  0  0  0
   -2.3940   33.1540   11.4240 H   0  0  0  0  0  0  0  0  0  0  0  0
   -3.2864   30.2478    9.5572 H   0  0  0  0  0  0  0  0  0  0  0  0
   -2.0720   30.5439    8.2392 H   0  0  0  0  0  0  0  0  0  0  0  0
    0.2234   31.0580    7.5156 H   0  0  0  0  0  0  0  0  0  0  0  0
    2.5691   30.4118    6.2696 H   0  0  0  0  0  0  0  0  0  0  0  0
   -2.7456   28.0573    9.4682 H   0  0  0  0  0  0  0  0  0  0  0  0
   -2.5925   29.1109   12.0334 H   0  0  0  0  0  0  0  0  0  0  0  0
   -3.6132   27.7206   11.4422 H   0  0  0  0  0  0  0  0  0  0  0  0
   -0.8697   27.5437   12.7376 H   0  0  0  0  0  0  0  0  0  0  0  0
   -2.4567   27.0808   13.4624 H   0  0  0  0  0  0  0  0  0  0  0  0
   -0.9930   25.3070   12.4010 H   0  0  0  0  0  0  0  0  0  0  0  0
   -2.6050   25.2420   12.1460 H   0  0  0  0  0  0  0  0  0  0  0  0
   -0.8135   24.9147   10.2312 H   0  0  0  0  0  0  0  0  0  0  0  0
   -2.4775   25.5494    9.9356 H   0  0  0  0  0  0  0  0  0  0  0  0
    0.0007   27.2424   10.4760 H   0  0  0  0  0  0  0  0  0  0  0  0
   -0.7504   26.9529    8.8646 H   0  0  0  0  0  0  0  0  0  0  0  0
  1  2  1  0
  2  3  2  0
  2  4  1  0
  4  5  1  0
  5  6  1  0
  6  7  2  0
  6  8  1  0
  8  9  2  0
  9 10  1  0
 10 11  2  0
 11 12  1  0
 11 13  1  0
  5 14  1  0
 14 15  1  0
 15 16  1  0
 16 17  1  0
 17 18  1  0
 18 19  1  0
 13  8  1  0
 19 14  1  0
  1 20  1  0
  1 21  1  0
  4 22  1  0
  4 23  1  0
  9 24  1  0
 10 25  1  0
 14 26  1  0
 15 27  1  0
 15 28  1  0
 16 29  1  0
 16 30  1  0
 17 31  1  0
 17 32  1  0
 18 33  1  0
 18 34  1  0
 19 35  1  0
 19 36  1  0
M  CHG  1  17   1
M  END
>  <vina_affinity>  (94) 
-6.897

$$$$
dec_C50975214
     RDKit          3D

 45 47  0  0  0  0  0  0  0  0999 V2000
    4.6010   26.8340    5.5920 C   0  0  0  0  0  0  0  0  0  0  0  0
    5.1260   26.8730    6.9110 O   0  0  0  0  0  0  0  0  0  0  0  0
    4.2630   26.6130    7.9430 C   0  0  0  0  0  0  0  0  0  0  0  0
    3.8640   25.3340    8.3400 C   0  0  0  0  0  0  0  0  0  0  0  0
    2.9740   25.1620    9.4090 C   0  0  0  0  0  0  0  0  0  0  0  0
    2.4680   26.2610   10.1010 C   0  0  0  0  0  0  0  0  0  0  0  0
    1.5720   26.1630   11.1800 N   0  0  0  0  0  0  0  0  0  0  0  0
    0.2230   25.8600   11.1480 C   0  0  0  0  0  0  0  0  0  0  0  0
   -0.4230   25.5510   10.1480 O   0  0  0  0  0  0  0  0  0  0  0  0
   -0.4300   25.8780   12.5010 C   0  0  0  0  0  0  0  0  0  0  0  0
   -0.2370   24.6820   13.2600 C   0  0  0  0  0  0  0  0  0  0  0  0
   -0.0190   23.6860   13.8240 N   0  0  0  0  0  0  0  0  0  0  0  0
   -1.1760   26.9100   12.9770 C   0  0  0  0  0  0  0  0  0  0  0  0
   -1.7780   27.0680   14.0730 O   0  0  0  0  0  0  0  0  0  0  0  0
   -1.4120   28.0470   12.1380 C   0  0  0  0  0  0  0  0  0  0  0  0
   -2.6680   28.1710   11.5860 N   0  0  0  0  0  0  0  0  0  0  0  0
   -2.6980   29.2580   10.7590 C   0  0  0  0  0  0  0  0  0  0  0  0
   -1.4680   29.8860   10.8210 C   0  0  0  0  0  0  0  0  0  0  0  0
   -0.6540   29.1410   11.7270 C   0  0  0  0  0  0  0  0  0  0  0  0
    0.7330   29.4740   12.1440 C   0  0  0  0  0  0  0  0  0  0  0  0
   -1.2110   31.0990   10.0540 C   0  0  0  0  0  0  0  0  0  0  0  0
   -0.1350   31.6930   10.0750 O   0  0  0  0  0  0  0  0  0  0  0  0
   -2.3430   31.5550    9.1310 C   0  0  0  0  0  0  0  0  0  0  0  0
   -3.7360   31.1930    9.6680 C   0  0  0  0  0  0  0  0  0  0  0  0
   -3.8750   29.6920    9.9670 C   0  0  0  0  0  0  0  0  0  0  0  0
    2.8650   27.5430    9.7120 C   0  0  0  0  0  0  0  0  0  0  0  0
    3.7520   27.7170    8.6430 C   0  0  0  0  0  0  0  0  0  0  0  0
    4.1970   29.3340    8.2140 Cl  0  0  0  0  0  0  0  0  0  0  0  0
    3.5049   26.7526    5.6359 H   0  0  0  0  0  0  0  0  0  0  0  0
    4.8792   27.7553    5.0592 H   0  0  0  0  0  0  0  0  0  0  0  0
    5.0123   25.9639    5.0592 H   0  0  0  0  0  0  0  0  0  0  0  0
    4.2524   24.4530    7.8080 H   0  0  0  0  0  0  0  0  0  0  0  0
    2.6711   24.1470    9.7056 H   0  0  0  0  0  0  0  0  0  0  0  0
    1.9170   26.4500   12.0920 H   0  0  0  0  0  0  0  0  0  0  0  0
   -3.4290   27.5410   11.7970 H   0  0  0  0  0  0  0  0  0  0  0  0
    0.7922   29.4882   13.2423 H   0  0  0  0  0  0  0  0  0  0  0  0
    1.4264   28.7168   11.7492 H   0  0  0  0  0  0  0  0  0  0  0  0
    1.0070   30.4635   11.7492 H   0  0  0  0  0  0  0  0  0  0  0  0
   -2.2840   32.6475    9.0169 H   0  0  0  0  0  0  0  0  0  0  0  0
   -2.2147   31.0350    8.1702 H   0  0  0  0  0  0  0  0  0  0  0  0
   -3.9146   31.7563   10.5958 H   0  0  0  0  0  0  0  0  0  0  0  0
   -4.4725   31.4508    8.8927 H   0  0  0  0  0  0  0  0  0  0  0  0
   -4.7955   29.5120   10.5416 H   0  0  0  0  0  0  0  0  0  0  0  0
   -3.9262   29.1239    9.0265 H   0  0  0  0  0  0  0  0  0  0  0  0
    2.4780   28.4214   10.2493 H   0  0  0  0  0  0  0  0  0  0  0  0
  1  2  1  0
  2  3  1  0
  3  4  2  0
  4  5  1  0
  5  6  2  0
  6  7  1  0
  7  8  1  0
  8  9  2  0
  8 10  1  0
 10 11  1  0
 11 12  3  0
 10 13  2  0
 13 14  1  0
 13 15  1  0
 15 16  1  0
 16 17  1  0
 17 18  2  0
 18 19  1  0
 19 20  1  0
 18 21  1  0
 21 22  2  0
 21 23  1  0
 23 24  1  0
 24 25  1  0
  6 26  1  0
 26 27  2  0
 27 28  1  0
 27  3  1  0
 19 15  2  0
 25 17  1  0
  1 29  1  0
  1 30  1  0
  1 31  1  0
  4 32  1  0
  5 33  1  0
  7 34  1  0
 16 35  1  0
 20 36  1  0
 20 37  1  0
 20 38  1  0
 23 39  1  0
 23 40  1  0
 24 41  1  0
 24 42  1  0
 25 43  1  0
 25 44  1  0
 26 45  1  0
M  CHG  1  14  -1
M  END
>  <vina_affinity>  (95) 
-7.958

$$$$
dec_C54614732
     RDKit          3D

 74 77  0  0  0  0  0  0  0  0999 V2000
   -1.0040   18.2300   10.7890 C   0  0  0  0  0  0  0  0  0  0  0  0
   -0.9390   19.4650   11.6690 C   0  0  0  0  0  0  0  0  0  0  0  0
   -0.6830   20.5920   10.8230 O   0  0  0  0  0  0  0  0  0  0  0  0
   -0.0240   21.6190   11.4450 C   0  0  0  0  0  0  0  0  0  0  0  0
   -0.5840   22.0410   12.6530 C   0  0  0  0  0  0  0  0  0  0  0  0
   -0.0180   23.1060   13.3800 C   0  0  0  0  0  0  0  0  0  0  0  0
   -0.6530   23.6190   14.6710 C   0  0  1  0  0  0  0  0  0  0  0  0
   -1.6970   24.6900   14.3920 C   0  0  0  0  0  0  0  0  0  0  0  0
   -1.1550   25.9240   13.7760 C   0  0  0  0  0  0  0  0  0  0  0  0
   -0.5080   26.6930   14.4730 O   0  0  0  0  0  0  0  0  0  0  0  0
   -1.4310   25.9950   12.4280 N   0  0  0  0  0  0  0  0  0  0  0  0
   -1.0610   27.0120   11.5150 C   0  0  0  0  0  0  0  0  0  0  0  0
    0.2460   27.1230   11.0320 C   0  0  0  0  0  0  0  0  0  0  0  0
    0.5950   28.1380   10.1430 C   0  0  0  0  0  0  0  0  0  0  0  0
   -0.3580   29.0590    9.7280 C   0  0  0  0  0  0  0  0  0  0  0  0
   -1.6790   28.9800   10.1930 C   0  0  0  0  0  0  0  0  0  0  0  0
   -2.6640   30.0070    9.7010 C   0  0  0  0  0  0  0  0  0  0  0  0
   -2.0440   27.9460   11.0920 C   0  0  0  0  0  0  0  0  0  0  0  0
   -3.4650   27.8350   11.5930 C   0  0  0  0  0  0  0  0  0  0  0  0
   -3.0020   24.5430   14.7260 C   0  0  0  0  0  0  0  0  0  0  0  0
   -4.0580   25.5990   14.5270 C   0  0  0  0  0  0  0  0  0  0  0  0
   -3.4230   23.3650   15.3360 N   0  0  0  0  0  0  0  0  0  0  0  0
   -2.5670   22.3980   15.7300 C   0  0  0  0  0  0  0  0  0  0  0  0
   -2.7330   21.2920   16.4140 N   0  0  0  0  0  0  0  0  0  0  0  0
   -1.4730   20.7380   16.5430 N   0  0  0  0  0  0  0  0  0  0  0  0
   -0.5490   21.4900   15.9520 N   0  0  0  0  0  0  0  0  0  0  0  0
   -1.2390   22.5110   15.4220 N   0  0  0  0  0  0  0  0  0  0  0  0
    1.1270   23.7360   12.8680 C   0  0  0  0  0  0  0  0  0  0  0  0
    1.7110   23.2890   11.6820 C   0  0  0  0  0  0  0  0  0  0  0  0
    1.1570   22.2120   10.9910 C   0  0  0  0  0  0  0  0  0  0  0  0
    1.8010   21.7780    9.8630 O   0  0  0  0  0  0  0  0  0  0  0  0
    2.9680   21.0290   10.2140 C   0  0  0  0  0  0  0  0  0  0  0  0
    2.6900   19.5530   10.5510 C   0  0  0  0  0  0  0  0  0  0  0  0
    2.2750   18.7680    9.6930 O   0  0  0  0  0  0  0  0  0  0  0  0
    2.9090   19.1420   11.8670 N   0  0  0  0  0  0  0  0  0  0  0  0
    2.6760   17.7360   12.2000 C   0  0  0  0  0  0  0  0  0  0  0  0
    3.9400   17.0580   12.7030 C   0  0  0  0  0  0  0  0  0  0  0  0
    3.3460   20.0210   12.9540 C   0  0  0  0  0  0  0  0  0  0  0  0
    2.2640   20.1960   14.0090 C   0  0  0  0  0  0  0  0  0  0  0  0
   -1.0513   17.3312   11.4214 H   0  0  0  0  0  0  0  0  0  0  0  0
   -1.9008   18.2791   10.1539 H   0  0  0  0  0  0  0  0  0  0  0  0
   -0.1070   18.1847   10.1539 H   0  0  0  0  0  0  0  0  0  0  0  0
   -1.8958   19.6010   12.1943 H   0  0  0  0  0  0  0  0  0  0  0  0
   -0.1428   19.3599   12.4207 H   0  0  0  0  0  0  0  0  0  0  0  0
   -1.4796   21.5344   13.0419 H   0  0  0  0  0  0  0  0  0  0  0  0
    0.1398   24.0797   15.2786 H   0  0  0  0  0  0  0  0  0  0  0  0
   -1.9050   25.1950   12.0320 H   0  0  0  0  0  0  0  0  0  0  0  0
    1.0086   26.4002   11.3576 H   0  0  0  0  0  0  0  0  0  0  0  0
    1.6271   28.2097    9.7694 H   0  0  0  0  0  0  0  0  0  0  0  0
   -0.0741   29.8584    9.0277 H   0  0  0  0  0  0  0  0  0  0  0  0
   -3.1384   30.5017   10.5613 H   0  0  0  0  0  0  0  0  0  0  0  0
   -2.1384   30.7565    9.0911 H   0  0  0  0  0  0  0  0  0  0  0  0
   -3.4348   29.5131    9.0911 H   0  0  0  0  0  0  0  0  0  0  0  0
   -3.4670   27.8348   12.6930 H   0  0  0  0  0  0  0  0  0  0  0  0
   -4.0512   28.6901   11.2254 H   0  0  0  0  0  0  0  0  0  0  0  0
   -3.9114   26.8993   11.2254 H   0  0  0  0  0  0  0  0  0  0  0  0
   -4.4119   25.9529   15.5066 H   0  0  0  0  0  0  0  0  0  0  0  0
   -3.6315   26.4427   13.9646 H   0  0  0  0  0  0  0  0  0  0  0  0
   -4.9017   25.1725   13.9646 H   0  0  0  0  0  0  0  0  0  0  0  0
   -4.3900   23.3170   15.6490 H   0  0  0  0  0  0  0  0  0  0  0  0
    1.5674   24.5886   13.4057 H   0  0  0  0  0  0  0  0  0  0  0  0
    2.6104   23.7874   11.2914 H   0  0  0  0  0  0  0  0  0  0  0  0
    3.6685   21.0638    9.3666 H   0  0  0  0  0  0  0  0  0  0  0  0
    3.3788   21.4901   11.1243 H   0  0  0  0  0  0  0  0  0  0  0  0
    1.9055   17.6785   12.9829 H   0  0  0  0  0  0  0  0  0  0  0  0
    2.3505   17.2176   11.2860 H   0  0  0  0  0  0  0  0  0  0  0  0
    3.9425   17.0567   13.8030 H   0  0  0  0  0  0  0  0  0  0  0  0
    3.9716   16.0219   12.3350 H   0  0  0  0  0  0  0  0  0  0  0  0
    4.8207   17.6048   12.3350 H   0  0  0  0  0  0  0  0  0  0  0  0
    4.2379   19.5850   13.4277 H   0  0  0  0  0  0  0  0  0  0  0  0
    3.5689   21.0094   12.5257 H   0  0  0  0  0  0  0  0  0  0  0  0
    2.7132   20.1233   15.0105 H   0  0  0  0  0  0  0  0  0  0  0  0
    1.7916   21.1822   13.8897 H   0  0  0  0  0  0  0  0  0  0  0  0
    1.5048   19.4090   13.8897 H   0  0  0  0  0  0  0  0  0  0  0  0
  1  2  1  0
  2  3  1  0
  3  4  1  0
  4  5  2  0
  5  6  1  0
  6  7  1  0
  7  8  1  0
  8  9  1  0
  9 10  2  0
  9 11  1  0
 11 12  1  0
 12 13  2  0
 13 14  1  0
 14 15  2  0
 15 16  1  0
 16 17  1  0
 16 18  2  0
 18 19  1  0
  8 20  2  0
 20 21  1  0
 20 22  1  0
 22 23  1  0
 23 24  2  0
 24 25  1  0
 25 26  2  0
 26 27  1  0
  6 28  2  0
 28 29  1  0
 29 30  2  0
 30 31  1  0
 31 32  1  0
 32 33  1  0
 33 34  2  0
 33 35  1  0
 35 36  1  0
 36 37  1  0
 35 38  1  0
 38 39  1  0
 30  4  1  0
 27  7  1  0
 18 12  1  0
 27 23  1  0
  1 40  1  0
  1 41  1  0
  1 42  1  0
  2 43  1  0
  2 44  1  0
  5 45  1  0
  7 46  1  1
 11 47  1  0
 13 48  1  0
 14 49  1  0
 15 50  1  0
 17 51  1  0
 17 52  1  0
 17 53  1  0
 19 54  1  0
 19 55  1  0
 19 56  1  0
 21 57  1  0
 21 58  1  0
 21 59  1  0
 22 60  1  0
 28 61  1  0
 29 62  1  0
 32 63  1  0
 32 64  1  0
 36 65  1  0
 36 66  1  0
 37 67  1  0
 37 68  1  0
 37 69  1  0
 38 70  1  0
 38 71  1  0
 39 72  1  0
 39 73  1  0
 39 74  1  0
M  END
>  <vina_affinity>  (96) 
-7.353

$$$$
dec_C40225119
     RDKit          3D

 46 49  0  0  0  0  0  0  0  0999 V2000
   -1.6270   26.1600   14.9670 C   0  0  0  0  0  0  0  0  0  0  0  0
   -1.5200   27.0400   13.7310 C   0  0  2  0  0  0  0  0  0  0  0  0
   -2.7670   27.0350   13.0340 O   0  0  0  0  0  0  0  0  0  0  0  0
   -0.4950   26.5520   12.7540 C   0  0  0  0  0  0  0  0  0  0  0  0
   -0.1320   25.2950   12.5770 N   0  0  0  0  0  0  0  0  0  0  0  0
    0.8410   25.3160   11.6120 C   0  0  0  0  0  0  0  0  0  0  0  0
    1.5860   24.2560   11.0760 C   0  0  0  0  0  0  0  0  0  0  0  0
    2.5380   24.5320   10.0870 C   0  0  0  0  0  0  0  0  0  0  0  0
    2.7420   25.8400    9.6400 C   0  0  0  0  0  0  0  0  0  0  0  0
    2.0040   26.9090   10.1600 C   0  0  0  0  0  0  0  0  0  0  0  0
    1.0560   26.6090   11.1470 C   0  0  0  0  0  0  0  0  0  0  0  0
    0.1620   27.3750   11.8640 N   0  0  0  0  0  0  0  0  0  0  0  0
   -0.0950   28.7900   11.6420 C   0  0  0  0  0  0  0  0  0  0  0  0
   -1.1190   29.0250   10.5390 C   0  0  0  0  0  0  0  0  0  0  0  0
   -1.8960   28.1210   10.2250 O   0  0  0  0  0  0  0  0  0  0  0  0
   -1.0790   30.2880    9.9190 N   0  0  0  0  0  0  0  0  0  0  0  0
   -2.0940   31.3040   10.2280 C   0  0  0  0  0  0  0  0  0  0  0  0
   -1.5210   32.7070   10.2890 C   0  0  0  0  0  0  0  0  0  0  0  0
   -0.9210   33.0580    8.9440 C   0  0  0  0  0  0  0  0  0  0  0  0
    0.0170   31.9780    8.4740 C   0  0  0  0  0  0  0  0  0  0  0  0
    0.9700   32.3250    7.4980 C   0  0  0  0  0  0  0  0  0  0  0  0
    1.8550   31.3760    6.9990 C   0  0  0  0  0  0  0  0  0  0  0  0
    1.7820   30.0680    7.4580 C   0  0  0  0  0  0  0  0  0  0  0  0
    0.8280   29.7110    8.4180 C   0  0  0  0  0  0  0  0  0  0  0  0
   -0.0680   30.6510    8.9520 C   0  0  0  0  0  0  0  0  0  0  0  0
   -1.5511   26.7844   15.8694 H   0  0  0  0  0  0  0  0  0  0  0  0
   -2.5952   25.6380   14.9627 H   0  0  0  0  0  0  0  0  0  0  0  0
   -0.8121   25.4212   14.9627 H   0  0  0  0  0  0  0  0  0  0  0  0
   -1.2350   28.0394   14.0916 H   0  0  0  0  0  0  0  0  0  0  0  0
   -3.4490   27.1270   13.7260 H   0  0  0  0  0  0  0  0  0  0  0  0
    1.4254   23.2257   11.4263 H   0  0  0  0  0  0  0  0  0  0  0  0
    3.1311   23.7110    9.6577 H   0  0  0  0  0  0  0  0  0  0  0  0
    3.4975   26.0331    8.8642 H   0  0  0  0  0  0  0  0  0  0  0  0
    2.1612   27.9397    9.8093 H   0  0  0  0  0  0  0  0  0  0  0  0
   -0.4731   29.2317   12.5758 H   0  0  0  0  0  0  0  0  0  0  0  0
    0.8498   29.2589   11.3298 H   0  0  0  0  0  0  0  0  0  0  0  0
   -2.8695   31.2746    9.4485 H   0  0  0  0  0  0  0  0  0  0  0  0
   -2.5051   31.0704   11.2212 H   0  0  0  0  0  0  0  0  0  0  0  0
   -2.3214   33.4212   10.5326 H   0  0  0  0  0  0  0  0  0  0  0  0
   -0.7429   32.7552   11.0650 H   0  0  0  0  0  0  0  0  0  0  0  0
   -1.7305   33.1766    8.2087 H   0  0  0  0  0  0  0  0  0  0  0  0
   -0.3539   33.9949    9.0467 H   0  0  0  0  0  0  0  0  0  0  0  0
    1.0151   33.3591    7.1257 H   0  0  0  0  0  0  0  0  0  0  0  0
    2.6064   31.6591    6.2472 H   0  0  0  0  0  0  0  0  0  0  0  0
    2.4759   29.3098    7.0661 H   0  0  0  0  0  0  0  0  0  0  0  0
    0.7790   28.6676    8.7628 H   0  0  0  0  0  0  0  0  0  0  0  0
  1  2  1  0
  2  3  1  0
  2  4  1  0
  4  5  2  0
  5  6  1  0
  6  7  2  0
  7  8  1  0
  8  9  2  0
  9 10  1  0
 10 11  2  0
 11 12  1  0
 12 13  1  0
 13 14  1  0
 14 15  2  0
 14 16  1  0
 16 17  1  0
 17 18  1  0
 18 19  1  0
 19 20  1  0
 20 21  2  0
 21 22  1  0
 22 23  2  0
 23 24  1  0
 24 25  2  0
 12  4  1  0
 25 16  1  0
 11  6  1  0
 25 20  1  0
  1 26  1  0
  1 27  1  0
  1 28  1  0
  2 29  1  1
  3 30  1  0
  7 31  1  0
  8 32  1  0
  9 33  1  0
 10 34  1  0
 13 35  1  0
 13 36  1  0
 17 37  1  0
 17 38  1  0
 18 39  1  0
 18 40  1  0
 19 41  1  0
 19 42  1  0
 21 43  1  0
 22 44  1  0
 23 45  1  0
 24 46  1  0
M  END
>  <vina_affinity>  (97) 
-8.550

$$$$
dec_C19837540
     RDKit          3D

 41 45  0  0  0  0  0  0  0  0999 V2000
   -4.8430   23.9530   16.2920 C   0  0  0  0  0  0  0  0  0  0  0  0
   -3.5490   23.7180   15.7090 N   0  0  0  0  0  0  0  0  0  0  0  0
   -2.8560   22.5590   15.9570 N   0  0  0  0  0  0  0  0  0  0  0  0
   -1.7310   22.7890   15.2250 C   0  0  0  0  0  0  0  0  0  0  0  0
   -0.6420   21.8270   15.1430 C   0  0  0  0  0  0  0  0  0  0  0  0
    0.2310   21.8210   14.0510 C   0  0  0  0  0  0  0  0  0  0  0  0
    1.2760   20.9010   13.9970 C   0  0  0  0  0  0  0  0  0  0  0  0
    1.4160   20.0040   15.0430 C   0  0  0  0  0  0  0  0  0  0  0  0
    0.5930   19.9670   16.1120 N   0  0  0  0  0  0  0  0  0  0  0  0
   -0.4200   20.8700   16.1290 C   0  0  0  0  0  0  0  0  0  0  0  0
   -1.7530   24.0390   14.5320 C   0  0  0  0  0  0  0  0  0  0  0  0
   -1.1870   24.9490   13.6880 N   0  0  0  0  0  0  0  0  0  0  0  0
   -2.0840   26.0200   13.5960 C   0  0  0  0  0  0  0  0  0  0  0  0
   -1.8470   27.2200   12.7820 C   0  0  0  0  0  0  0  0  0  0  0  0
   -2.6450   27.4430   11.6490 C   0  0  0  0  0  0  0  0  0  0  0  0
   -2.4620   28.5700   10.8370 C   0  0  0  0  0  0  0  0  0  0  0  0
   -1.4680   29.5020   11.1490 C   0  0  0  0  0  0  0  0  0  0  0  0
   -1.2560   30.6590   10.3460 N   0  0  0  0  0  0  0  0  0  0  0  0
   -1.8530   31.8970   10.4600 C   0  0  0  0  0  0  0  0  0  0  0  0
   -1.3340   32.6930    9.4670 C   0  0  0  0  0  0  0  0  0  0  0  0
   -0.4280   31.8640    8.7930 C   0  0  0  0  0  0  0  0  0  0  0  0
   -0.3720   30.6380    9.3130 N   0  0  0  0  0  0  0  0  0  0  0  0
   -0.6650   29.2900   12.2790 C   0  0  0  0  0  0  0  0  0  0  0  0
   -0.8540   28.1600   13.0860 C   0  0  0  0  0  0  0  0  0  0  0  0
   -3.1730   25.7980   14.3410 N   0  0  0  0  0  0  0  0  0  0  0  0
   -2.9230   24.5940   14.8770 C   0  0  0  0  0  0  0  0  0  0  0  0
   -4.7593   23.9378   17.3887 H   0  0  0  0  0  0  0  0  0  0  0  0
   -5.2191   24.9341   15.9665 H   0  0  0  0  0  0  0  0  0  0  0  0
   -5.5401   23.1668   15.9665 H   0  0  0  0  0  0  0  0  0  0  0  0
    0.0927   22.5436   13.2333 H   0  0  0  0  0  0  0  0  0  0  0  0
    1.9721   20.8874   13.1454 H   0  0  0  0  0  0  0  0  0  0  0  0
    2.2442   19.2814   15.0001 H   0  0  0  0  0  0  0  0  0  0  0  0
   -1.1143   20.8437   16.9818 H   0  0  0  0  0  0  0  0  0  0  0  0
   -0.2990   24.8410   13.2210 H   0  0  0  0  0  0  0  0  0  0  0  0
   -3.4310   26.7173   11.3931 H   0  0  0  0  0  0  0  0  0  0  0  0
   -3.1004   28.7214    9.9541 H   0  0  0  0  0  0  0  0  0  0  0  0
   -2.6047   32.1924   11.2068 H   0  0  0  0  0  0  0  0  0  0  0  0
   -1.5756   33.7441    9.2504 H   0  0  0  0  0  0  0  0  0  0  0  0
    0.1712   32.1890    7.9297 H   0  0  0  0  0  0  0  0  0  0  0  0
    0.1201   30.0170   12.5341 H   0  0  0  0  0  0  0  0  0  0  0  0
   -0.2150   28.0094   13.9686 H   0  0  0  0  0  0  0  0  0  0  0  0
  1  2  1  0
  2  3  1  0
  3  4  2  0
  4  5  1  0
  5  6  2  0
  6  7  1  0
  7  8  2  0
  8  9  1  0
  9 10  2  0
  4 11  1  0
 11 12  1  0
 12 13  1  0
 13 14  1  0
 14 15  2  0
 15 16  1  0
 16 17  2  0
 17 18  1  0
 18 19  1  0
 19 20  2  0
 20 21  1  0
 21 22  2  0
 17 23  1  0
 23 24  2  0
 13 25  2  0
 25 26  1  0
 26  2  1  0
 10  5  1  0
 26 11  2  0
 24 14  1  0
 22 18  1  0
  1 27  1  0
  1 28  1  0
  1 29  1  0
  6 30  1  0
  7 31  1  0
  8 32  1  0
 10 33  1  0
 12 34  1  0
 15 35  1  0
 16 36  1  0
 19 37  1  0
 20 38  1  0
 21 39  1  0
 23 40  1  0
 24 41  1  0
M  END
>  <vina_affinity>  (98) 
-8.535

$$$$
dec_C43257233
     RDKit          3D

 40 42  0  0  0  0  0  0  0  0999 V2000
   -1.8180   26.5070   13.5140 C   0  0  0  0  0  0  0  0  0  0  0  0
   -2.3080   26.5600   12.0700 C   0  0  1  0  0  0  0  0  0  0  0  0
   -3.7360   27.0680   12.1190 N   0  0  0  0  0  0  0  0  0  0  0  0
   -1.4460   27.4740   11.1390 C   0  0  1  0  0  0  0  0  0  0  0  0
   -1.2850   29.2440   11.5930 S   0  0  0  0  0  0  0  0  0  0  0  0
   -2.1440   30.0530   10.3400 C   0  0  0  0  0  0  0  0  0  0  0  0
   -3.4470   30.0220   10.1820 N   0  0  0  0  0  0  0  0  0  0  0  0
   -3.7130   30.8060    9.0920 N   0  0  0  0  0  0  0  0  0  0  0  0
   -2.5960   31.3070    8.5870 N   0  0  0  0  0  0  0  0  0  0  0  0
   -1.5940   30.8260    9.3530 N   0  0  0  0  0  0  0  0  0  0  0  0
   -0.2350   31.2040    9.0490 C   0  0  0  0  0  0  0  0  0  0  0  0
    0.5920   30.1380    8.3080 C   0  0  0  0  0  0  0  0  0  0  0  0
    1.1660   30.8380    7.0790 C   0  0  0  0  0  0  0  0  0  0  0  0
    1.1970   32.3090    7.4610 C   0  0  0  0  0  0  0  0  0  0  0  0
   -0.0990   32.4970    8.2350 C   0  0  0  0  0  0  0  0  0  0  0  0
   -0.0860   26.8620   10.8550 C   0  0  0  0  0  0  0  0  0  0  0  0
    1.1610   27.4620   10.7510 C   0  0  0  0  0  0  0  0  0  0  0  0
    2.2000   26.5220   10.4750 C   0  0  0  0  0  0  0  0  0  0  0  0
    1.7080   25.2480   10.3910 C   0  0  0  0  0  0  0  0  0  0  0  0
    2.6040   23.8180   10.0860 Cl  0  0  0  0  0  0  0  0  0  0  0  0
    0.0400   25.1560   10.6400 S   0  0  0  0  0  0  0  0  0  0  0  0
   -2.6761   26.5998   14.1960 H   0  0  0  0  0  0  0  0  0  0  0  0
   -1.3089   25.5486   13.6935 H   0  0  0  0  0  0  0  0  0  0  0  0
   -1.1158   27.3344   13.6935 H   0  0  0  0  0  0  0  0  0  0  0  0
   -2.2292   25.5533   11.6338 H   0  0  0  0  0  0  0  0  0  0  0  0
   -3.9040   27.7800   11.3930 H   0  0  0  0  0  0  0  0  0  0  0  0
   -4.4040   26.3040   11.9400 H   0  0  0  0  0  0  0  0  0  0  0  0
   -3.9790   27.4880   13.0260 H   0  0  0  0  0  0  0  0  0  0  0  0
   -2.0512   27.5058   10.2210 H   0  0  0  0  0  0  0  0  0  0  0  0
    0.1650   31.3453   10.0639 H   0  0  0  0  0  0  0  0  0  0  0  0
    1.4033   29.7669    8.9514 H   0  0  0  0  0  0  0  0  0  0  0  0
   -0.0230   29.2696    8.0293 H   0  0  0  0  0  0  0  0  0  0  0  0
    2.1798   30.4713    6.8603 H   0  0  0  0  0  0  0  0  0  0  0  0
    0.5688   30.6526    6.1740 H   0  0  0  0  0  0  0  0  0  0  0  0
    2.0692   32.5338    8.0924 H   0  0  0  0  0  0  0  0  0  0  0  0
    1.2800   32.9778    6.5916 H   0  0  0  0  0  0  0  0  0  0  0  0
   -0.0349   33.3720    8.8985 H   0  0  0  0  0  0  0  0  0  0  0  0
   -0.9627   32.6768    7.5779 H   0  0  0  0  0  0  0  0  0  0  0  0
    1.3304   28.5425   10.8682 H   0  0  0  0  0  0  0  0  0  0  0  0
    3.2596   26.7879   10.3465 H   0  0  0  0  0  0  0  0  0  0  0  0
  1  2  1  0
  2  3  1  0
  2  4  1  0
  4  5  1  0
  5  6  1  0
  6  7  2  0
  7  8  1  0
  8  9  2  0
  9 10  1  0
 10 11  1  0
 11 12  1  0
 12 13  1  0
 13 14  1  0
 14 15  1  0
  4 16  1  0
 16 17  2  0
 17 18  1  0
 18 19  2  0
 19 20  1  0
 19 21  1  0
 10  6  1  0
 15 11  1  0
 21 16  1  0
  1 22  1  0
  1 23  1  0
  1 24  1  0
  2 25  1  6
  3 26  1  0
  3 27  1  0
  3 28  1  0
  4 29  1  6
 11 30  1  0
 12 31  1  0
 12 32  1  0
 13 33  1  0
 13 34  1  0
 14 35  1  0
 14 36  1  0
 15 37  1  0
 15 38  1  0
 17 39  1  0
 18 40  1  0
M  CHG  1   3   1
M  END
>  <vina_affinity>  (1) 
-6.839

$$$$
dec_C67373316
     RDKit          3D

 53 54  0  0  0  0  0  0  0  0999 V2000
   -2.5540   20.3340   16.7280 C   0  0  0  0  0  0  0  0  0  0  0  0
   -1.5450   20.3220   15.6740 N   0  0  0  0  0  0  0  0  0  0  0  0
   -0.2910   21.4350   15.7620 S   0  0  0  0  0  0  0  0  0  0  0  0
    0.9250   20.7980   15.3110 O   0  0  0  0  0  0  0  0  0  0  0  0
   -0.3940   22.0820   17.0500 O   0  0  0  0  0  0  0  0  0  0  0  0
   -0.7850   22.6330   14.5480 C   0  0  0  0  0  0  0  0  0  0  0  0
   -0.3900   22.4880   13.2180 C   0  0  0  0  0  0  0  0  0  0  0  0
   -0.7460   23.4590   12.2720 C   0  0  0  0  0  0  0  0  0  0  0  0
   -1.5210   24.5800   12.6170 C   0  0  0  0  0  0  0  0  0  0  0  0
   -1.7920   25.6070   11.6890 N   0  0  0  0  0  0  0  0  0  0  0  0
   -0.7160   26.3700   11.0670 C   0  0  0  0  0  0  0  0  0  0  0  0
   -0.5550   27.7210   11.7900 C   0  0  2  0  0  0  0  0  0  0  0  0
   -0.0190   27.5570   13.1150 O   0  0  0  0  0  0  0  0  0  0  0  0
   -1.9160   28.4300   11.9360 C   0  0  0  0  0  0  0  0  0  0  0  0
   -1.8850   29.7230   11.1230 N   0  0  2  0  0  0  0  0  0  0  0  0
   -2.9420   29.7720   10.0600 C   0  0  0  0  0  0  0  0  0  0  0  0
   -3.0790   31.2060    9.5550 C   0  0  0  0  0  0  0  0  0  0  0  0
   -1.7390   31.9400    9.3730 C   0  0  1  0  0  0  0  0  0  0  0  0
   -1.5510   33.0340   10.4290 C   0  0  0  0  0  0  0  0  0  0  0  0
   -0.5670   30.9560    9.3730 C   0  0  0  0  0  0  0  0  0  0  0  0
   -0.5060   30.0700   10.6150 C   0  0  0  0  0  0  0  0  0  0  0  0
   -1.8790   24.7060   13.9890 C   0  0  0  0  0  0  0  0  0  0  0  0
   -2.6540   25.8640   14.4530 N   0  0  0  0  0  0  0  0  0  0  0  0
   -3.8440   25.9420   14.0970 O   0  0  0  0  0  0  0  0  0  0  0  0
   -2.0790   26.6950   15.1660 O   0  0  0  0  0  0  0  0  0  0  0  0
   -1.5230   23.7440   14.9480 C   0  0  0  0  0  0  0  0  0  0  0  0
   -2.0585   20.3281   17.7100 H   0  0  0  0  0  0  0  0  0  0  0  0
   -3.1714   21.2396   16.6343 H   0  0  0  0  0  0  0  0  0  0  0  0
   -3.1928   19.4434   16.6343 H   0  0  0  0  0  0  0  0  0  0  0  0
   -1.8680   20.1850   14.7160 H   0  0  0  0  0  0  0  0  0  0  0  0
    0.2006   21.6120   12.9118 H   0  0  0  0  0  0  0  0  0  0  0  0
   -0.4098   23.3407   11.2313 H   0  0  0  0  0  0  0  0  0  0  0  0
   -2.4780   25.2550   11.0040 H   0  0  0  0  0  0  0  0  0  0  0  0
    0.2236   25.8025   11.1382 H   0  0  0  0  0  0  0  0  0  0  0  0
   -0.9593   26.5487   10.0092 H   0  0  0  0  0  0  0  0  0  0  0  0
    0.1358   28.3175   11.1760 H   0  0  0  0  0  0  0  0  0  0  0  0
    0.2070   26.6130   13.2340 H   0  0  0  0  0  0  0  0  0  0  0  0
   -2.7163   27.7756   11.5601 H   0  0  0  0  0  0  0  0  0  0  0  0
   -2.1080   28.6578   12.9949 H   0  0  0  0  0  0  0  0  0  0  0  0
   -2.1320   30.4360   11.8340 H   0  0  0  0  0  0  0  0  0  0  0  0
   -2.6562   29.1139    9.2262 H   0  0  0  0  0  0  0  0  0  0  0  0
   -3.9019   29.4335   10.4771 H   0  0  0  0  0  0  0  0  0  0  0  0
   -3.5942   31.1821    8.5834 H   0  0  0  0  0  0  0  0  0  0  0  0
   -3.6415   31.7592   10.3215 H   0  0  0  0  0  0  0  0  0  0  0  0
   -1.7605   32.4340    8.3904 H   0  0  0  0  0  0  0  0  0  0  0  0
   -1.6271   32.5913   11.4331 H   0  0  0  0  0  0  0  0  0  0  0  0
   -0.5603   33.4960   10.3060 H   0  0  0  0  0  0  0  0  0  0  0  0
   -2.3306   33.8002   10.3060 H   0  0  0  0  0  0  0  0  0  0  0  0
   -0.6583   30.3079    8.4889 H   0  0  0  0  0  0  0  0  0  0  0  0
    0.3549   31.5559    9.3620 H   0  0  0  0  0  0  0  0  0  0  0  0
    0.0255   29.1403   10.3637 H   0  0  0  0  0  0  0  0  0  0  0  0
    0.0208   30.6244   11.4057 H   0  0  0  0  0  0  0  0  0  0  0  0
   -1.8226   23.8662   15.9993 H   0  0  0  0  0  0  0  0  0  0  0  0
  1  2  1  0
  2  3  1  0
  3  4  2  0
  3  5  2  0
  3  6  1  0
  6  7  2  0
  7  8  1  0
  8  9  2  0
  9 10  1  0
 10 11  1  0
 11 12  1  0
 12 13  1  0
 12 14  1  0
 14 15  1  0
 15 16  1  0
 16 17  1  0
 17 18  1  0
 18 19  1  0
 18 20  1  0
 20 21  1  0
  9 22  1  0
 22 23  1  0
 23 24  2  0
 23 25  1  0
 22 26  2  0
 26  6  1  0
 21 15  1  0
  1 27  1  0
  1 28  1  0
  1 29  1  0
  2 30  1  0
  7 31  1  0
  8 32  1  0
 10 33  1  0
 11 34  1  0
 11 35  1  0
 12 36  1  6
 13 37  1  0
 14 38  1  0
 14 39  1  0
 15 40  1  1
 16 41  1  0
 16 42  1  0
 17 43  1  0
 17 44  1  0
 18 45  1  6
 19 46  1  0
 19 47  1  0
 19 48  1  0
 20 49  1  0
 20 50  1  0
 21 51  1  0
 21 52  1  0
 26 53  1  0
M  CHG  3  15   1  23   1  25  -1
M  END
>  <vina_affinity>  (1) 
-7.234

$$$$
dec_C44020170
     RDKit          3D

 55 58  0  0  0  0  0  0  0  0999 V2000
   -6.3150   21.3830   15.4630 C   0  0  0  0  0  0  0  0  0  0  0  0
   -5.8380   21.2670   16.8040 O   0  0  0  0  0  0  0  0  0  0  0  0
   -4.8520   22.1480   17.1290 C   0  0  0  0  0  0  0  0  0  0  0  0
   -4.8990   22.9320   18.0720 O   0  0  0  0  0  0  0  0  0  0  0  0
   -3.6390   22.0010   16.2080 C   0  0  1  0  0  0  0  0  0  0  0  0
   -2.8870   23.2040   16.0860 O   0  0  0  0  0  0  0  0  0  0  0  0
   -1.9430   23.1560   14.9950 C   0  0  1  0  0  0  0  0  0  0  0  0
   -0.9740   24.1750   15.2680 O   0  0  0  0  0  0  0  0  0  0  0  0
   -0.7360   25.1190   14.3070 C   0  0  0  0  0  0  0  0  0  0  0  0
   -1.2740   26.3770   14.5880 C   0  0  0  0  0  0  0  0  0  0  0  0
   -1.1100   27.4400   13.6980 C   0  0  0  0  0  0  0  0  0  0  0  0
   -0.3970   27.2570   12.5080 C   0  0  0  0  0  0  0  0  0  0  0  0
    0.1690   26.0050   12.2440 C   0  0  0  0  0  0  0  0  0  0  0  0
   -0.0100   24.9380   13.1310 C   0  0  0  0  0  0  0  0  0  0  0  0
    0.8930   25.7240   11.1150 O   0  0  0  0  0  0  0  0  0  0  0  0
    1.3540   26.8760   10.3970 C   0  0  0  0  0  0  0  0  0  0  0  0
    0.2370   27.9010   10.1810 C   0  0  2  0  0  0  0  0  0  0  0  0
    0.6400   29.0380    9.2610 C   0  0  0  0  0  0  0  0  0  0  0  0
    1.9210   29.0440    8.6850 C   0  0  0  0  0  0  0  0  0  0  0  0
    2.3130   30.0770    7.8320 C   0  0  0  0  0  0  0  0  0  0  0  0
    1.4290   31.1090    7.5480 C   0  0  0  0  0  0  0  0  0  0  0  0
    1.8550   32.0970    6.7110 O   0  0  0  0  0  0  0  0  0  0  0  0
    0.1550   31.1250    8.1030 C   0  0  0  0  0  0  0  0  0  0  0  0
   -0.2380   30.0910    8.9560 C   0  0  0  0  0  0  0  0  0  0  0  0
   -0.2250   28.4050   11.5520 C   0  0  0  0  0  0  0  0  0  0  0  0
   -1.2390   21.7710   14.9130 C   0  0  2  0  0  0  0  0  0  0  0  0
   -1.9060   20.9650   13.9280 O   0  0  0  0  0  0  0  0  0  0  0  0
   -1.2750   21.0830   16.2890 C   0  0  1  0  0  0  0  0  0  0  0  0
   -0.5080   21.8190   17.2500 O   0  0  0  0  0  0  0  0  0  0  0  0
   -2.7250   20.8970   16.7780 C   0  0  2  0  0  0  0  0  0  0  0  0
   -3.2020   19.6070   16.3670 O   0  0  0  0  0  0  0  0  0  0  0  0
   -7.3838   21.6429   15.4752 H   0  0  0  0  0  0  0  0  0  0  0  0
   -5.7521   22.1704   14.9404 H   0  0  0  0  0  0  0  0  0  0  0  0
   -6.1766   20.4250   14.9404 H   0  0  0  0  0  0  0  0  0  0  0  0
   -4.0105   21.7459   15.2045 H   0  0  0  0  0  0  0  0  0  0  0  0
   -2.4540   23.3126   14.0336 H   0  0  0  0  0  0  0  0  0  0  0  0
   -1.8338   26.5321   15.5221 H   0  0  0  0  0  0  0  0  0  0  0  0
   -1.5423   28.4238   13.9328 H   0  0  0  0  0  0  0  0  0  0  0  0
    0.4233   23.9537   12.8997 H   0  0  0  0  0  0  0  0  0  0  0  0
    2.1654   27.3499   10.9689 H   0  0  0  0  0  0  0  0  0  0  0  0
    1.7058   26.5430    9.4094 H   0  0  0  0  0  0  0  0  0  0  0  0
   -0.5989   27.4079    9.6633 H   0  0  0  0  0  0  0  0  0  0  0  0
    2.6223   28.2265    8.9083 H   0  0  0  0  0  0  0  0  0  0  0  0
    3.3187   30.0733    7.3864 H   0  0  0  0  0  0  0  0  0  0  0  0
    1.1810   32.2320    6.0240 H   0  0  0  0  0  0  0  0  0  0  0  0
   -0.5393   31.9464    7.8721 H   0  0  0  0  0  0  0  0  0  0  0  0
   -1.2470   30.1016    9.3940 H   0  0  0  0  0  0  0  0  0  0  0  0
    0.5269   29.1003   11.9536 H   0  0  0  0  0  0  0  0  0  0  0  0
   -1.1919   28.9162   11.4343 H   0  0  0  0  0  0  0  0  0  0  0  0
   -0.1868   21.9028   14.6204 H   0  0  0  0  0  0  0  0  0  0  0  0
   -1.3620   20.1700   13.7690 H   0  0  0  0  0  0  0  0  0  0  0  0
   -0.8220   20.0868   16.1779 H   0  0  0  0  0  0  0  0  0  0  0  0
   -0.8930   21.6670   18.1350 H   0  0  0  0  0  0  0  0  0  0  0  0
   -2.7428   20.9672   17.8756 H   0  0  0  0  0  0  0  0  0  0  0  0
   -2.6540   19.3380   15.6010 H   0  0  0  0  0  0  0  0  0  0  0  0
  1  2  1  0
  2  3  1  0
  3  4  2  0
  3  5  1  0
  5  6  1  0
  6  7  1  0
  7  8  1  0
  8  9  1  0
  9 10  2  0
 10 11  1  0
 11 12  2  0
 12 13  1  0
 13 14  2  0
 13 15  1  0
 15 16  1  0
 16 17  1  0
 17 18  1  0
 18 19  2  0
 19 20  1  0
 20 21  2  0
 21 22  1  0
 21 23  1  0
 23 24  2  0
 17 25  1  0
  7 26  1  0
 26 27  1  0
 26 28  1  0
 28 29  1  0
 28 30  1  0
 30 31  1  0
 30  5  1  0
 14  9  1  0
 24 18  1  0
 25 12  1  0
  1 32  1  0
  1 33  1  0
  1 34  1  0
  5 35  1  6
  7 36  1  6
 10 37  1  0
 11 38  1  0
 14 39  1  0
 16 40  1  0
 16 41  1  0
 17 42  1  6
 19 43  1  0
 20 44  1  0
 22 45  1  0
 23 46  1  0
 24 47  1  0
 25 48  1  0
 25 49  1  0
 26 50  1  6
 27 51  1  0
 28 52  1  6
 29 53  1  0
 30 54  1  1
 31 55  1  0
M  END
>  <vina_affinity>  (1) 
-8.916

$$$$
dec_C05419633
     RDKit          3D

 55 59  0  0  0  0  0  0  0  0999 V2000
   -6.4620   20.5670   16.1890 C   0  0  0  0  0  0  0  0  0  0  0  0
   -5.3620   21.5700   15.9940 C   0  0  0  0  0  0  0  0  0  0  0  0
   -5.6350   22.9350   16.1170 C   0  0  0  0  0  0  0  0  0  0  0  0
   -4.6110   23.8700   15.9910 C   0  0  0  0  0  0  0  0  0  0  0  0
   -3.3080   23.4550   15.7110 C   0  0  0  0  0  0  0  0  0  0  0  0
   -3.0030   22.0960   15.5220 C   0  0  0  0  0  0  0  0  0  0  0  0
   -1.5890   21.6060   15.1750 C   0  0  2  0  0  0  0  0  0  0  0  0
   -0.9200   21.0580   16.3640 N   0  0  0  0  0  0  0  0  0  0  0  0
   -0.6640   21.8180   17.4500 N   0  0  0  0  0  0  0  0  0  0  0  0
   -0.0310   21.0640   18.3380 N   0  0  0  0  0  0  0  0  0  0  0  0
    0.1200   19.8150   17.8050 C   0  0  0  0  0  0  0  0  0  0  0  0
    0.7180   18.6620   18.3330 C   0  0  0  0  0  0  0  0  0  0  0  0
    0.7300   17.4980   17.5530 C   0  0  0  0  0  0  0  0  0  0  0  0
    0.1590   17.4850   16.2780 C   0  0  0  0  0  0  0  0  0  0  0  0
   -0.4420   18.6270   15.7370 C   0  0  0  0  0  0  0  0  0  0  0  0
   -0.4400   19.7780   16.5340 C   0  0  0  0  0  0  0  0  0  0  0  0
   -0.6480   22.4910   14.2300 C   0  0  0  0  0  0  0  0  0  0  0  0
    0.6360   22.5360   14.9280 O   0  0  0  0  0  0  0  0  0  0  0  0
   -0.9400   23.9740   13.9060 C   0  0  0  0  0  0  0  0  0  0  0  0
   -0.5640   24.9580   14.8530 C   0  0  0  0  0  0  0  0  0  0  0  0
   -0.7700   26.3200   14.6290 C   0  0  0  0  0  0  0  0  0  0  0  0
   -1.3580   26.7430   13.4440 C   0  0  0  0  0  0  0  0  0  0  0  0
   -1.7310   25.8010   12.4910 C   0  0  0  0  0  0  0  0  0  0  0  0
   -1.5200   24.4350   12.7190 C   0  0  0  0  0  0  0  0  0  0  0  0
   -0.3830   21.7230   12.9040 C   0  0  0  0  0  0  0  0  0  0  0  0
    0.6430   22.1140   12.0240 C   0  0  0  0  0  0  0  0  0  0  0  0
    0.8940   21.4050   10.8470 C   0  0  0  0  0  0  0  0  0  0  0  0
    0.1270   20.2890   10.5260 C   0  0  0  0  0  0  0  0  0  0  0  0
   -0.8920   19.8800   11.3800 C   0  0  0  0  0  0  0  0  0  0  0  0
   -1.1460   20.5870   12.5580 C   0  0  0  0  0  0  0  0  0  0  0  0
   -4.0470   21.1740   15.7110 C   0  0  0  0  0  0  0  0  0  0  0  0
   -3.7460   19.8400   15.6670 O   0  0  0  0  0  0  0  0  0  0  0  0
   -6.6311   20.4128   17.2649 H   0  0  0  0  0  0  0  0  0  0  0  0
   -7.3856   20.9403   15.7225 H   0  0  0  0  0  0  0  0  0  0  0  0
   -6.1753   19.6130   15.7225 H   0  0  0  0  0  0  0  0  0  0  0  0
   -6.6633   23.2722   16.3142 H   0  0  0  0  0  0  0  0  0  0  0  0
   -4.8299   24.9411   16.1127 H   0  0  0  0  0  0  0  0  0  0  0  0
   -2.5061   24.2044   15.6370 H   0  0  0  0  0  0  0  0  0  0  0  0
   -1.7874   20.7977   14.4558 H   0  0  0  0  0  0  0  0  0  0  0  0
    1.1676   18.6710   19.3369 H   0  0  0  0  0  0  0  0  0  0  0  0
    1.1947   16.5832   17.9494 H   0  0  0  0  0  0  0  0  0  0  0  0
    0.1824   16.5576   15.6870 H   0  0  0  0  0  0  0  0  0  0  0  0
   -0.8941   18.6207   14.7342 H   0  0  0  0  0  0  0  0  0  0  0  0
    1.0480   23.3860   14.6660 H   0  0  0  0  0  0  0  0  0  0  0  0
   -0.0946   24.6384   15.7951 H   0  0  0  0  0  0  0  0  0  0  0  0
   -0.4677   27.0561   15.3885 H   0  0  0  0  0  0  0  0  0  0  0  0
   -1.5274   27.8143   13.2606 H   0  0  0  0  0  0  0  0  0  0  0  0
   -2.1956   26.1315   11.5503 H   0  0  0  0  0  0  0  0  0  0  0  0
   -1.8168   23.7088   11.9479 H   0  0  0  0  0  0  0  0  0  0  0  0
    1.2579   22.9931   12.2671 H   0  0  0  0  0  0  0  0  0  0  0  0
    1.6998   21.7295   10.1722 H   0  0  0  0  0  0  0  0  0  0  0  0
    0.3261   19.7315    9.5989 H   0  0  0  0  0  0  0  0  0  0  0  0
   -1.4991   18.9982   11.1274 H   0  0  0  0  0  0  0  0  0  0  0  0
   -1.9533   20.2531   13.2264 H   0  0  0  0  0  0  0  0  0  0  0  0
   -2.8690   19.7240   16.0760 H   0  0  0  0  0  0  0  0  0  0  0  0
  1  2  1  0
  2  3  2  0
  3  4  1  0
  4  5  2  0
  5  6  1  0
  6  7  1  0
  7  8  1  0
  8  9  1  0
  9 10  2  0
 10 11  1  0
 11 12  2  0
 12 13  1  0
 13 14  2  0
 14 15  1  0
 15 16  2  0
  7 17  1  0
 17 18  1  0
 17 19  1  0
 19 20  2  0
 20 21  1  0
 21 22  2  0
 22 23  1  0
 23 24  2  0
 17 25  1  0
 25 26  2  0
 26 27  1  0
 27 28  2  0
 28 29  1  0
 29 30  2  0
  6 31  2  0
 31 32  1  0
 31  2  1  0
 16  8  1  0
 24 19  1  0
 30 25  1  0
 16 11  1  0
  1 33  1  0
  1 34  1  0
  1 35  1  0
  3 36  1  0
  4 37  1  0
  5 38  1  0
  7 39  1  6
 12 40  1  0
 13 41  1  0
 14 42  1  0
 15 43  1  0
 18 44  1  0
 20 45  1  0
 21 46  1  0
 22 47  1  0
 23 48  1  0
 24 49  1  0
 26 50  1  0
 27 51  1  0
 28 52  1  0
 29 53  1  0
 30 54  1  0
 32 55  1  0
M  END
>  <vina_affinity>  (1) 
-6.974

$$$$
dec_C35092927
     RDKit          3D

 50 52  0  0  0  0  0  0  0  0999 V2000
   -0.3950   33.1090    8.5860 C   0  0  0  0  0  0  0  0  0  0  0  0
   -1.5730   32.3210    8.7000 O   0  0  0  0  0  0  0  0  0  0  0  0
   -1.4100   31.0140    9.0680 C   0  0  0  0  0  0  0  0  0  0  0  0
   -2.3280   30.2390    9.7750 C   0  0  0  0  0  0  0  0  0  0  0  0
   -2.0280   28.9090   10.0870 C   0  0  0  0  0  0  0  0  0  0  0  0
   -0.8050   28.3400    9.7050 C   0  0  0  0  0  0  0  0  0  0  0  0
   -0.5550   26.9140   10.0750 C   0  0  0  0  0  0  0  0  0  0  0  0
   -1.0040   26.0370    9.3390 O   0  0  0  0  0  0  0  0  0  0  0  0
    0.2010   26.5780   11.3540 C   0  0  2  0  0  0  0  0  0  0  0  0
    1.4330   25.6940   11.1030 C   0  0  2  0  0  0  0  0  0  0  0  0
    2.4140   26.2730   10.0980 C   0  0  0  0  0  0  0  0  0  0  0  0
    2.7430   27.6350   10.1490 C   0  0  0  0  0  0  0  0  0  0  0  0
    3.6190   28.1890    9.2150 C   0  0  0  0  0  0  0  0  0  0  0  0
    4.1650   27.3830    8.2180 C   0  0  0  0  0  0  0  0  0  0  0  0
    5.0200   27.9280    7.2960 O   0  0  0  0  0  0  0  0  0  0  0  0
    3.8500   26.0210    8.1360 C   0  0  0  0  0  0  0  0  0  0  0  0
    4.4360   25.3200    7.1150 O   0  0  0  0  0  0  0  0  0  0  0  0
    5.4550   24.3920    7.4610 C   0  0  0  0  0  0  0  0  0  0  0  0
    2.9840   25.4730    9.0880 C   0  0  0  0  0  0  0  0  0  0  0  0
    1.0720   24.3330   10.7750 N   0  0  0  0  0  0  0  0  0  0  0  0
    0.0330   23.6790   11.3410 C   0  0  0  0  0  0  0  0  0  0  0  0
   -0.1190   22.4710   11.2110 O   0  0  0  0  0  0  0  0  0  0  0  0
   -0.8440   24.4210   12.0510 N   0  0  0  0  0  0  0  0  0  0  0  0
   -0.6980   25.8320   12.3590 C   0  0  1  0  0  0  0  0  0  0  0  0
    0.0140   25.8320   13.6160 O   0  0  0  0  0  0  0  0  0  0  0  0
   -2.0720   26.5580   12.5630 C   0  0  0  0  0  0  0  0  0  0  0  0
   -2.7090   26.0360   13.6440 F   0  0  0  0  0  0  0  0  0  0  0  0
   -2.9110   26.4400   11.5170 F   0  0  0  0  0  0  0  0  0  0  0  0
   -1.8960   27.8800   12.7990 F   0  0  0  0  0  0  0  0  0  0  0  0
    0.1090   29.1150    8.9900 C   0  0  0  0  0  0  0  0  0  0  0  0
   -0.1970   30.4450    8.6780 C   0  0  0  0  0  0  0  0  0  0  0  0
   -0.0221   33.3584    9.5904 H   0  0  0  0  0  0  0  0  0  0  0  0
    0.3736   32.5426    8.0397 H   0  0  0  0  0  0  0  0  0  0  0  0
   -0.6251   34.0356    8.0397 H   0  0  0  0  0  0  0  0  0  0  0  0
   -3.2889   30.6737   10.0877 H   0  0  0  0  0  0  0  0  0  0  0  0
   -2.7607   28.3020   10.6389 H   0  0  0  0  0  0  0  0  0  0  0  0
    0.5228   27.5484   11.7599 H   0  0  0  0  0  0  0  0  0  0  0  0
    1.9698   25.6742   12.0629 H   0  0  0  0  0  0  0  0  0  0  0  0
    2.3067   28.2723   10.9322 H   0  0  0  0  0  0  0  0  0  0  0  0
    3.8774   29.2570    9.2654 H   0  0  0  0  0  0  0  0  0  0  0  0
    5.7680   28.3390    7.7550 H   0  0  0  0  0  0  0  0  0  0  0  0
    5.5312   24.3226    8.5562 H   0  0  0  0  0  0  0  0  0  0  0  0
    5.2065   23.4035    7.0473 H   0  0  0  0  0  0  0  0  0  0  0  0
    6.4160   24.7316    7.0473 H   0  0  0  0  0  0  0  0  0  0  0  0
    2.7442   24.4002    9.0474 H   0  0  0  0  0  0  0  0  0  0  0  0
    1.7560   23.7250   10.3440 H   0  0  0  0  0  0  0  0  0  0  0  0
   -1.6300   23.8950   12.4160 H   0  0  0  0  0  0  0  0  0  0  0  0
   -0.6660   25.9760   14.2990 H   0  0  0  0  0  0  0  0  0  0  0  0
    1.0686   28.6815    8.6720 H   0  0  0  0  0  0  0  0  0  0  0  0
    0.5298   31.0507    8.1169 H   0  0  0  0  0  0  0  0  0  0  0  0
  1  2  1  0
  2  3  1  0
  3  4  2  0
  4  5  1  0
  5  6  2  0
  6  7  1  0
  7  8  2  0
  7  9  1  0
  9 10  1  0
 10 11  1  0
 11 12  2  0
 12 13  1  0
 13 14  2  0
 14 15  1  0
 14 16  1  0
 16 17  1  0
 17 18  1  0
 16 19  2  0
 10 20  1  0
 20 21  1  0
 21 22  2  0
 21 23  1  0
 23 24  1  0
 24 25  1  1
 24 26  1  0
 26 27  1  0
 26 28  1  0
 26 29  1  0
  6 30  1  0
 30 31  2  0
 31  3  1  0
 24  9  1  0
 19 11  1  0
  1 32  1  0
  1 33  1  0
  1 34  1  0
  4 35  1  0
  5 36  1  0
  9 37  1  1
 10 38  1  1
 12 39  1  0
 13 40  1  0
 15 41  1  0
 18 42  1  0
 18 43  1  0
 18 44  1  0
 19 45  1  0
 20 46  1  0
 23 47  1  0
 25 48  1  0
 30 49  1  0
 31 50  1  0
M  END
>  <vina_affinity>  (1) 
-8.123

$$$$
dec_C63437144
     RDKit          3D

 60 64  0  0  0  0  0  0  0  0999 V2000
   -0.6670   22.4270   15.2440 C   0  0  0  0  0  0  0  0  0  0  0  0
   -0.5150   23.6860   14.4420 C   0  0  0  0  0  0  0  0  0  0  0  0
   -0.9390   24.9130   14.9610 C   0  0  0  0  0  0  0  0  0  0  0  0
   -0.7700   26.0900   14.2290 C   0  0  0  0  0  0  0  0  0  0  0  0
   -0.1520   26.0680   12.9700 C   0  0  0  0  0  0  0  0  0  0  0  0
    0.0010   27.3590   12.1950 C   0  0  2  0  0  0  0  0  0  0  0  0
   -1.3090   27.9730   11.9930 N   0  0  0  0  0  0  0  0  0  0  0  0
   -1.3780   29.2830   11.5870 C   0  0  0  0  0  0  0  0  0  0  0  0
   -0.4440   30.0700   11.6910 O   0  0  0  0  0  0  0  0  0  0  0  0
   -2.6390   29.6350   10.8300 C   0  0  0  0  0  0  0  0  0  0  0  0
   -2.3510   30.0820    9.3920 C   0  0  1  0  0  0  0  0  0  0  0  0
   -2.0010   31.5390    9.2040 C   0  0  0  0  0  0  0  0  0  0  0  0
   -0.8100   31.6800    8.6130 C   0  0  0  0  0  0  0  0  0  0  0  0
   -0.0200   32.7990    8.2110 C   0  0  0  0  0  0  0  0  0  0  0  0
    1.1880   32.5620    7.6690 C   0  0  0  0  0  0  0  0  0  0  0  0
    1.7050   31.2110    7.4940 C   0  0  0  0  0  0  0  0  0  0  0  0
    1.0180   30.1070    7.8400 C   0  0  0  0  0  0  0  0  0  0  0  0
   -0.3200   30.3030    8.4170 C   0  0  0  0  0  0  0  0  0  0  0  0
   -1.1510   29.4220    8.8180 N   0  0  0  0  0  0  0  0  0  0  0  0
    0.6580   27.1580   10.7880 C   0  0  0  0  0  0  0  0  0  0  0  0
   -0.0300   26.9150    9.7850 O   0  0  0  0  0  0  0  0  0  0  0  0
    2.0310   27.3330   10.7940 N   0  0  0  0  0  0  0  0  0  0  0  0
    2.9260   27.2110    9.7110 C   0  0  0  0  0  0  0  0  0  0  0  0
    3.5080   28.2970    9.0510 C   0  0  0  0  0  0  0  0  0  0  0  0
    4.3980   28.0880    7.9900 C   0  0  0  0  0  0  0  0  0  0  0  0
    4.7090   26.7950    7.5830 C   0  0  0  0  0  0  0  0  0  0  0  0
    4.1030   25.7080    8.2110 C   0  0  0  0  0  0  0  0  0  0  0  0
    3.2250   25.9130    9.2760 C   0  0  0  0  0  0  0  0  0  0  0  0
    4.3280   24.4060    7.8420 O   0  0  0  0  0  0  0  0  0  0  0  0
    4.9410   24.3290    6.5490 C   0  0  0  0  0  0  0  0  0  0  0  0
    6.0860   25.3240    6.4380 C   0  0  0  0  0  0  0  0  0  0  0  0
    5.6050   26.6690    6.5540 O   0  0  0  0  0  0  0  0  0  0  0  0
    0.2690   24.8330   12.4510 C   0  0  0  0  0  0  0  0  0  0  0  0
    0.0990   23.6580   13.1860 C   0  0  0  0  0  0  0  0  0  0  0  0
   -0.6377   22.6697   16.3165 H   0  0  0  0  0  0  0  0  0  0  0  0
   -1.6290   21.9518   15.0017 H   0  0  0  0  0  0  0  0  0  0  0  0
    0.1543   21.7365   15.0017 H   0  0  0  0  0  0  0  0  0  0  0  0
   -1.4097   24.9515   15.9544 H   0  0  0  0  0  0  0  0  0  0  0  0
   -1.1253   27.0447   14.6441 H   0  0  0  0  0  0  0  0  0  0  0  0
    0.6625   28.0008   12.7954 H   0  0  0  0  0  0  0  0  0  0  0  0
   -2.0840   27.3390   11.8390 H   0  0  0  0  0  0  0  0  0  0  0  0
   -3.2923   28.7505   10.8010 H   0  0  0  0  0  0  0  0  0  0  0  0
   -3.1209   30.4746   11.3524 H   0  0  0  0  0  0  0  0  0  0  0  0
   -3.3073   29.8252    8.9129 H   0  0  0  0  0  0  0  0  0  0  0  0
   -2.6434   32.3766    9.5135 H   0  0  0  0  0  0  0  0  0  0  0  0
   -0.3891   33.8270    8.3409 H   0  0  0  0  0  0  0  0  0  0  0  0
    1.8047   33.4144    7.3479 H   0  0  0  0  0  0  0  0  0  0  0  0
    2.7070   31.0875    7.0572 H   0  0  0  0  0  0  0  0  0  0  0  0
    1.4394   29.1010    7.6973 H   0  0  0  0  0  0  0  0  0  0  0  0
   -0.8800   28.4310    8.8760 H   0  0  0  0  0  0  0  0  0  0  0  0
    2.4570   27.5810   11.6840 H   0  0  0  0  0  0  0  0  0  0  0  0
    3.2655   29.3224    9.3669 H   0  0  0  0  0  0  0  0  0  0  0  0
    4.8522   28.9487    7.4773 H   0  0  0  0  0  0  0  0  0  0  0  0
    2.7642   25.0493    9.7777 H   0  0  0  0  0  0  0  0  0  0  0  0
    5.3299   23.3119    6.3935 H   0  0  0  0  0  0  0  0  0  0  0  0
    4.1873   24.5698    5.7848 H   0  0  0  0  0  0  0  0  0  0  0  0
    6.8115   25.1300    7.2418 H   0  0  0  0  0  0  0  0  0  0  0  0
    6.5630   25.2040    5.4541 H   0  0  0  0  0  0  0  0  0  0  0  0
    0.7370   24.7908   11.4564 H   0  0  0  0  0  0  0  0  0  0  0  0
    0.4514   22.7013   12.7731 H   0  0  0  0  0  0  0  0  0  0  0  0
  1  2  1  0
  2  3  2  0
  3  4  1  0
  4  5  2  0
  5  6  1  0
  6  7  1  0
  7  8  1  0
  8  9  2  0
  8 10  1  0
 10 11  1  0
 11 12  1  0
 12 13  2  0
 13 14  1  0
 14 15  2  0
 15 16  1  0
 16 17  2  0
 17 18  1  0
 18 19  2  0
  6 20  1  0
 20 21  2  0
 20 22  1  0
 22 23  1  0
 23 24  2  0
 24 25  1  0
 25 26  2  0
 26 27  1  0
 27 28  2  0
 27 29  1  0
 29 30  1  0
 30 31  1  0
 31 32  1  0
  5 33  1  0
 33 34  2  0
 34  2  1  0
 19 11  1  0
 28 23  1  0
 18 13  1  0
 32 26  1  0
  1 35  1  0
  1 36  1  0
  1 37  1  0
  3 38  1  0
  4 39  1  0
  6 40  1  1
  7 41  1  0
 10 42  1  0
 10 43  1  0
 11 44  1  6
 12 45  1  0
 14 46  1  0
 15 47  1  0
 16 48  1  0
 17 49  1  0
 19 50  1  0
 22 51  1  0
 24 52  1  0
 25 53  1  0
 28 54  1  0
 30 55  1  0
 30 56  1  0
 31 57  1  0
 31 58  1  0
 33 59  1  0
 34 60  1  0
M  CHG  1  19   1
M  END
>  <vina_affinity>  (1) 
-9.292

$$$$
dec_C40061866
     RDKit          3D

 45 47  0  0  0  0  0  0  0  0999 V2000
   -0.4270   26.3180   14.9470 C   0  0  0  0  0  0  0  0  0  0  0  0
   -1.8510   26.1400   14.4530 C   0  0  0  0  0  0  0  0  0  0  0  0
   -1.8790   25.2390   13.3370 O   0  0  0  0  0  0  0  0  0  0  0  0
   -1.7250   25.8090   12.1080 C   0  0  0  0  0  0  0  0  0  0  0  0
   -2.0430   26.9550   11.8200 O   0  0  0  0  0  0  0  0  0  0  0  0
   -1.0900   24.8110   11.1530 C   0  0  2  0  0  0  0  0  0  0  0  0
   -0.3290   23.7010   11.8970 C   0  0  0  0  0  0  0  0  0  0  0  0
    1.1910   23.8600   11.8290 C   0  0  0  0  0  0  0  0  0  0  0  0
    1.6210   25.3220   11.8600 C   0  0  0  0  0  0  0  0  0  0  0  0
    1.0190   26.0950   10.7710 N   0  0  0  0  0  0  0  0  0  0  0  0
    1.6690   27.1350   10.1020 C   0  0  0  0  0  0  0  0  0  0  0  0
    2.8240   26.9930    9.6950 O   0  0  0  0  0  0  0  0  0  0  0  0
    0.9810   28.3940    9.8940 C   0  0  0  0  0  0  0  0  0  0  0  0
    1.0200   29.3360    8.8800 C   0  0  0  0  0  0  0  0  0  0  0  0
    0.1390   30.4030    9.2170 C   0  0  0  0  0  0  0  0  0  0  0  0
   -0.2360   31.6010    8.5830 C   0  0  0  0  0  0  0  0  0  0  0  0
   -1.1490   32.4540    9.2160 C   0  0  0  0  0  0  0  0  0  0  0  0
   -1.6950   32.1310   10.4640 C   0  0  0  0  0  0  0  0  0  0  0  0
   -2.6450   33.0810   11.1360 C   0  0  0  0  0  0  0  0  0  0  0  0
   -1.3120   30.9490   11.1140 C   0  0  0  0  0  0  0  0  0  0  0  0
   -0.4010   30.1070   10.4640 C   0  0  0  0  0  0  0  0  0  0  0  0
    0.1470   28.9120   10.8620 N   0  0  0  0  0  0  0  0  0  0  0  0
   -0.2030   25.5620   10.1650 C   0  0  0  0  0  0  0  0  0  0  0  0
   -0.4179   26.3191   16.0470 H   0  0  0  0  0  0  0  0  0  0  0  0
    0.1959   25.4907   14.5760 H   0  0  0  0  0  0  0  0  0  0  0  0
   -0.0269   27.2731   14.5760 H   0  0  0  0  0  0  0  0  0  0  0  0
   -2.4692   25.7311   15.2658 H   0  0  0  0  0  0  0  0  0  0  0  0
   -2.2458   27.1166   14.1360 H   0  0  0  0  0  0  0  0  0  0  0  0
   -1.8845   24.2960   10.5930 H   0  0  0  0  0  0  0  0  0  0  0  0
   -0.6348   23.7157   12.9535 H   0  0  0  0  0  0  0  0  0  0  0  0
   -0.5795   22.7488   11.4065 H   0  0  0  0  0  0  0  0  0  0  0  0
    1.6399   23.3408   12.6886 H   0  0  0  0  0  0  0  0  0  0  0  0
    1.5325   23.4286   10.8765 H   0  0  0  0  0  0  0  0  0  0  0  0
    1.3135   25.7622   12.8200 H   0  0  0  0  0  0  0  0  0  0  0  0
    2.7136   25.3571   11.7376 H   0  0  0  0  0  0  0  0  0  0  0  0
    1.6296   29.2711    7.9667 H   0  0  0  0  0  0  0  0  0  0  0  0
    0.1831   31.8652    7.6009 H   0  0  0  0  0  0  0  0  0  0  0  0
   -1.4419   33.3934    8.7243 H   0  0  0  0  0  0  0  0  0  0  0  0
   -2.5488   32.9848   12.2276 H   0  0  0  0  0  0  0  0  0  0  0  0
   -2.4058   34.1120   10.8363 H   0  0  0  0  0  0  0  0  0  0  0  0
   -3.6760   32.8418   10.8363 H   0  0  0  0  0  0  0  0  0  0  0  0
   -1.7149   30.6909   12.1045 H   0  0  0  0  0  0  0  0  0  0  0  0
   -0.0310   28.4560   11.7470 H   0  0  0  0  0  0  0  0  0  0  0  0
   -0.7791   26.4003    9.7463 H   0  0  0  0  0  0  0  0  0  0  0  0
    0.1045   24.8424    9.3919 H   0  0  0  0  0  0  0  0  0  0  0  0
  1  2  1  0
  2  3  1  0
  3  4  1  0
  4  5  2  0
  4  6  1  0
  6  7  1  0
  7  8  1  0
  8  9  1  0
  9 10  1  0
 10 11  1  0
 11 12  2  0
 11 13  1  0
 13 14  2  0
 14 15  1  0
 15 16  2  0
 16 17  1  0
 17 18  2  0
 18 19  1  0
 18 20  1  0
 20 21  2  0
 21 22  1  0
 10 23  1  0
 23  6  1  0
 22 13  1  0
 21 15  1  0
  1 24  1  0
  1 25  1  0
  1 26  1  0
  2 27  1  0
  2 28  1  0
  6 29  1  6
  7 30  1  0
  7 31  1  0
  8 32  1  0
  8 33  1  0
  9 34  1  0
  9 35  1  0
 14 36  1  0
 16 37  1  0
 17 38  1  0
 19 39  1  0
 19 40  1  0
 19 41  1  0
 20 42  1  0
 22 43  1  0
 23 44  1  0
 23 45  1  0
M  END
>  <vina_affinity>  (1) 
-7.416

$$$$
dec_C36703225
     RDKit          3D

 63 66  0  0  0  0  0  0  0  0999 V2000
   -4.1460   30.4390    9.6580 C   0  0  0  0  0  0  0  0  0  0  0  0
   -2.8120   30.9300    9.1260 C   0  0  0  0  0  0  0  0  0  0  0  0
   -1.8020   31.2150   10.2240 N   0  0  0  0  0  0  0  0  0  0  0  0
   -1.3670   32.6670   10.3040 C   0  0  0  0  0  0  0  0  0  0  0  0
   -2.2700   33.4860   11.2100 C   0  0  0  0  0  0  0  0  0  0  0  0
   -0.6310   30.2120   10.3010 C   0  0  2  0  0  0  0  0  0  0  0  0
    0.0080   29.8890    8.9040 C   0  0  0  0  0  0  0  0  0  0  0  0
    1.4170   29.5080    8.8230 N   0  0  0  0  0  0  0  0  0  0  0  0
    2.3010   29.8860    7.8390 C   0  0  0  0  0  0  0  0  0  0  0  0
    1.9090   30.3790    6.7820 O   0  0  0  0  0  0  0  0  0  0  0  0
    3.7660   29.5410    8.1050 C   0  0  0  0  0  0  0  0  0  0  0  0
    4.0180   28.1610    7.7530 N   0  0  0  0  0  0  0  0  0  0  0  0
    3.7940   27.1020    8.5770 C   0  0  0  0  0  0  0  0  0  0  0  0
    3.3550   27.1420    9.7130 O   0  0  0  0  0  0  0  0  0  0  0  0
    4.1370   25.9480    7.9150 N   0  0  0  0  0  0  0  0  0  0  0  0
    4.7290   26.2190    6.6340 C   0  0  2  0  0  0  0  0  0  0  0  0
    4.0980   25.4320    5.4780 C   0  0  0  0  0  0  0  0  0  0  0  0
    5.2050   25.2680    4.4220 C   0  0  0  0  0  0  0  0  0  0  0  0
    6.4390   25.2900    5.2710 C   0  0  0  0  0  0  0  0  0  0  0  0
    7.7150   24.8880    4.9180 C   0  0  0  0  0  0  0  0  0  0  0  0
    8.7370   25.0260    5.8580 C   0  0  0  0  0  0  0  0  0  0  0  0
    8.4770   25.5680    7.1240 C   0  0  0  0  0  0  0  0  0  0  0  0
    7.1900   25.9840    7.4700 C   0  0  0  0  0  0  0  0  0  0  0  0
    6.1750   25.8410    6.5330 C   0  0  0  0  0  0  0  0  0  0  0  0
    4.4790   27.7300    6.5400 C   0  0  0  0  0  0  0  0  0  0  0  0
    4.6180   28.4530    5.5600 O   0  0  0  0  0  0  0  0  0  0  0  0
   -0.9270   28.9220   11.0580 C   0  0  0  0  0  0  0  0  0  0  0  0
   -1.3360   27.7450   10.4090 C   0  0  0  0  0  0  0  0  0  0  0  0
   -1.5930   26.5800   11.1360 C   0  0  0  0  0  0  0  0  0  0  0  0
   -1.4450   26.5740   12.5200 C   0  0  0  0  0  0  0  0  0  0  0  0
   -1.0400   27.7290   13.1800 C   0  0  0  0  0  0  0  0  0  0  0  0
   -0.7810   28.8950   12.4570 C   0  0  0  0  0  0  0  0  0  0  0  0
   -4.1271   30.4459   10.7578 H   0  0  0  0  0  0  0  0  0  0  0  0
   -4.9491   31.1005    9.3009 H   0  0  0  0  0  0  0  0  0  0  0  0
   -4.3286   29.4147    9.3009 H   0  0  0  0  0  0  0  0  0  0  0  0
   -2.3963   30.1605    8.4589 H   0  0  0  0  0  0  0  0  0  0  0  0
   -2.9977   31.8764    8.5970 H   0  0  0  0  0  0  0  0  0  0  0  0
   -2.3430   31.0240   11.0920 H   0  0  0  0  0  0  0  0  0  0  0  0
   -0.3400   32.7083   10.6959 H   0  0  0  0  0  0  0  0  0  0  0  0
   -1.4260   33.0941    9.2920 H   0  0  0  0  0  0  0  0  0  0  0  0
   -2.0298   33.2681   12.2611 H   0  0  0  0  0  0  0  0  0  0  0  0
   -2.1137   34.5568   11.0125 H   0  0  0  0  0  0  0  0  0  0  0  0
   -3.3205   33.2262   11.0125 H   0  0  0  0  0  0  0  0  0  0  0  0
    0.1101   30.7581   10.9031 H   0  0  0  0  0  0  0  0  0  0  0  0
   -0.5720   29.0602    8.4718 H   0  0  0  0  0  0  0  0  0  0  0  0
   -0.0273   30.8538    8.3768 H   0  0  0  0  0  0  0  0  0  0  0  0
    1.8230   29.0970    9.6690 H   0  0  0  0  0  0  0  0  0  0  0  0
    4.4106   30.1954    7.4998 H   0  0  0  0  0  0  0  0  0  0  0  0
    3.9848   29.6883    9.1729 H   0  0  0  0  0  0  0  0  0  0  0  0
    4.2040   25.0660    8.4100 H   0  0  0  0  0  0  0  0  0  0  0  0
    3.7552   24.4473    5.8284 H   0  0  0  0  0  0  0  0  0  0  0  0
    3.2223   25.9546    5.0657 H   0  0  0  0  0  0  0  0  0  0  0  0
    5.1064   24.3146    3.8822 H   0  0  0  0  0  0  0  0  0  0  0  0
    5.1899   26.0370    3.6356 H   0  0  0  0  0  0  0  0  0  0  0  0
    7.9187   24.4700    3.9211 H   0  0  0  0  0  0  0  0  0  0  0  0
    9.7579   24.7059    5.6025 H   0  0  0  0  0  0  0  0  0  0  0  0
    9.2953   25.6667    7.8525 H   0  0  0  0  0  0  0  0  0  0  0  0
    6.9848   26.4148    8.4611 H   0  0  0  0  0  0  0  0  0  0  0  0
   -1.4553   27.7407    9.3155 H   0  0  0  0  0  0  0  0  0  0  0  0
   -1.9128   25.6661   10.6139 H   0  0  0  0  0  0  0  0  0  0  0  0
   -1.6483   25.6562   13.0913 H   0  0  0  0  0  0  0  0  0  0  0  0
   -0.9235   27.7240   14.2738 H   0  0  0  0  0  0  0  0  0  0  0  0
   -0.4590   29.8032   12.9875 H   0  0  0  0  0  0  0  0  0  0  0  0
  1  2  1  0
  2  3  1  0
  3  4  1  0
  4  5  1  0
  3  6  1  0
  6  7  1  0
  7  8  1  0
  8  9  1  0
  9 10  2  0
  9 11  1  0
 11 12  1  0
 12 13  1  0
 13 14  2  0
 13 15  1  0
 16 15  1  1
 16 17  1  0
 17 18  1  0
 18 19  1  0
 19 20  2  0
 20 21  1  0
 21 22  2  0
 22 23  1  0
 23 24  2  0
 16 25  1  0
 25 26  2  0
  6 27  1  0
 27 28  2  0
 28 29  1  0
 29 30  2  0
 30 31  1  0
 31 32  2  0
 25 12  1  0
 32 27  1  0
 24 16  1  0
 24 19  1  0
  1 33  1  0
  1 34  1  0
  1 35  1  0
  2 36  1  0
  2 37  1  0
  3 38  1  0
  4 39  1  0
  4 40  1  0
  5 41  1  0
  5 42  1  0
  5 43  1  0
  6 44  1  1
  7 45  1  0
  7 46  1  0
  8 47  1  0
 11 48  1  0
 11 49  1  0
 15 50  1  0
 17 51  1  0
 17 52  1  0
 18 53  1  0
 18 54  1  0
 20 55  1  0
 21 56  1  0
 22 57  1  0
 23 58  1  0
 28 59  1  0
 29 60  1  0
 30 61  1  0
 31 62  1  0
 32 63  1  0
M  CHG  1   3   1
M  END
>  <vina_affinity>  (1) 
-8.687

$$$$
dec_C53199189
     RDKit          3D

 31 31  0  0  0  0  0  0  0  0999 V2000
   -2.8460   25.6460   14.1080 C   0  0  0  0  0  0  0  0  0  0  0  0
   -2.1280   26.6140   13.3580 O   0  0  0  0  0  0  0  0  0  0  0  0
   -2.2710   26.3820   11.9410 C   0  0  0  0  0  0  0  0  0  0  0  0
   -0.9050   26.3800   11.2280 C   0  0  1  0  0  0  0  0  0  0  0  0
   -1.1140   26.4340    9.7100 C   0  0  0  0  0  0  0  0  0  0  0  0
   -0.1650   27.6040   11.5800 O   0  0  0  0  0  0  0  0  0  0  0  0
    0.2040   28.4230   10.5470 C   0  0  0  0  0  0  0  0  0  0  0  0
   -0.6100   29.5140   10.1910 C   0  0  0  0  0  0  0  0  0  0  0  0
   -1.8910   29.8280   10.9070 C   0  0  0  0  0  0  0  0  0  0  0  0
   -0.2280   30.3240    9.1080 C   0  0  0  0  0  0  0  0  0  0  0  0
    0.9750   30.0930    8.4440 C   0  0  0  0  0  0  0  0  0  0  0  0
    1.4800   31.2100    7.0010 Br  0  0  0  0  0  0  0  0  0  0  0  0
    1.8240   29.0730    8.8550 C   0  0  0  0  0  0  0  0  0  0  0  0
    1.4470   28.2490    9.9180 C   0  0  0  0  0  0  0  0  0  0  0  0
    2.6040   27.0860   10.4670 Cl  0  0  0  0  0  0  0  0  0  0  0  0
   -0.2430   25.0280   11.6700 C   0  0  0  0  0  0  0  0  0  0  0  0
   -0.7700   23.9700   11.2110 O   0  0  0  0  0  0  0  0  0  0  0  0
    0.7380   25.1130   12.4690 O   0  0  0  0  0  0  0  0  0  0  0  0
   -2.7050   25.8361   15.1822 H   0  0  0  0  0  0  0  0  0  0  0  0
   -3.9160   25.7110   13.8615 H   0  0  0  0  0  0  0  0  0  0  0  0
   -2.4733   24.6409   13.8615 H   0  0  0  0  0  0  0  0  0  0  0  0
   -2.7566   25.4073   11.7857 H   0  0  0  0  0  0  0  0  0  0  0  0
   -2.8797   27.1948   11.5181 H   0  0  0  0  0  0  0  0  0  0  0  0
   -2.1581   26.7038    9.4930 H   0  0  0  0  0  0  0  0  0  0  0  0
   -0.4422   27.1881    9.2740 H   0  0  0  0  0  0  0  0  0  0  0  0
   -0.8916   25.4489    9.2740 H   0  0  0  0  0  0  0  0  0  0  0  0
   -1.7234   29.7869   11.9934 H   0  0  0  0  0  0  0  0  0  0  0  0
   -2.2304   30.8359   10.6262 H   0  0  0  0  0  0  0  0  0  0  0  0
   -2.6581   29.0913   10.6262 H   0  0  0  0  0  0  0  0  0  0  0  0
   -0.8829   31.1456    8.7824 H   0  0  0  0  0  0  0  0  0  0  0  0
    2.7867   28.9154    8.3467 H   0  0  0  0  0  0  0  0  0  0  0  0
  1  2  1  0
  2  3  1  0
  3  4  1  0
  4  5  1  0
  4  6  1  1
  6  7  1  0
  7  8  2  0
  8  9  1  0
  8 10  1  0
 10 11  2  0
 11 12  1  0
 11 13  1  0
 13 14  2  0
 14 15  1  0
  4 16  1  0
 16 17  2  0
 16 18  1  0
 14  7  1  0
  1 19  1  0
  1 20  1  0
  1 21  1  0
  3 22  1  0
  3 23  1  0
  5 24  1  0
  5 25  1  0
  5 26  1  0
  9 27  1  0
  9 28  1  0
  9 29  1  0
 10 30  1  0
 13 31  1  0
M  CHG  1  18  -1
M  END
>  <vina_affinity>  (1) 
-6.009

$$$$
dec_C67148695
     RDKit          3D

 56 56  0  0  0  0  0  0  0  0999 V2000
    7.3550   23.5360    6.6360 C   0  0  0  0  0  0  0  0  0  0  0  0
    8.0880   24.8630    6.4350 C   0  0  0  0  0  0  0  0  0  0  0  0
    9.5820   24.6750    6.7090 C   0  0  0  0  0  0  0  0  0  0  0  0
    7.5300   25.9850    7.3290 C   0  0  0  0  0  0  0  0  0  0  0  0
    6.2630   25.5860    8.0870 C   0  0  0  0  0  0  0  0  0  0  0  0
    5.0560   26.3950    7.6490 C   0  0  0  0  0  0  0  0  0  0  0  0
    4.5150   26.2930    6.5510 O   0  0  0  0  0  0  0  0  0  0  0  0
    4.5740   27.2340    8.6270 N   0  0  0  0  0  0  0  0  0  0  0  0
    3.6070   28.2870    8.3340 C   0  0  0  0  0  0  0  0  0  0  0  0
    2.4310   28.4180    9.3170 C   0  0  0  0  0  0  0  0  0  0  0  0
    2.4320   27.8750   10.4210 O   0  0  0  0  0  0  0  0  0  0  0  0
    1.4390   29.3060    8.9480 N   0  0  0  0  0  0  0  0  0  0  0  0
    0.4020   29.7060    9.8790 C   0  0  0  0  0  0  0  0  0  0  0  0
   -0.3380   30.9490    9.3720 C   0  0  0  0  0  0  0  0  0  0  0  0
   -1.7110   31.1920   10.0310 C   0  0  0  0  0  0  0  0  0  0  0  0
   -1.8550   32.6740   10.4210 C   0  0  0  0  0  0  0  0  0  0  0  0
   -2.8710   30.8270    9.0960 C   0  0  0  0  0  0  0  0  0  0  0  0
   -1.8320   30.4030   11.3160 N   0  0  0  0  0  0  0  0  0  0  0  0
   -1.5260   28.9130   11.3080 C   0  0  0  0  0  0  0  0  0  0  0  0
   -0.8670   28.5920   12.6620 C   0  0  0  0  0  0  0  0  0  0  0  0
   -2.8430   28.1340   11.2110 C   0  0  0  0  0  0  0  0  0  0  0  0
   -0.5850   28.5690   10.1460 C   0  0  0  0  0  0  0  0  0  0  0  0
    7.2452   23.3371    7.7123 H   0  0  0  0  0  0  0  0  0  0  0  0
    6.3601   23.5924    6.1701 H   0  0  0  0  0  0  0  0  0  0  0  0
    7.9325   22.7239    6.1701 H   0  0  0  0  0  0  0  0  0  0  0  0
    7.9306   25.1697    5.3904 H   0  0  0  0  0  0  0  0  0  0  0  0
    9.7557   24.6531    7.7950 H   0  0  0  0  0  0  0  0  0  0  0  0
    9.9199   23.7273    6.2645 H   0  0  0  0  0  0  0  0  0  0  0  0
   10.1442   25.5095    6.2645 H   0  0  0  0  0  0  0  0  0  0  0  0
    8.3017   26.2627    8.0621 H   0  0  0  0  0  0  0  0  0  0  0  0
    7.2623   26.8229    6.6685 H   0  0  0  0  0  0  0  0  0  0  0  0
    6.0610   24.5203    7.9037 H   0  0  0  0  0  0  0  0  0  0  0  0
    6.4322   25.7825    9.1560 H   0  0  0  0  0  0  0  0  0  0  0  0
    5.1580   27.3750    9.4440 H   0  0  0  0  0  0  0  0  0  0  0  0
    4.1463   29.2457    8.3254 H   0  0  0  0  0  0  0  0  0  0  0  0
    3.1562   28.0141    7.3684 H   0  0  0  0  0  0  0  0  0  0  0  0
    1.7010   29.9380    8.1850 H   0  0  0  0  0  0  0  0  0  0  0  0
    0.8944   29.9546   10.8307 H   0  0  0  0  0  0  0  0  0  0  0  0
    0.2953   31.8276    9.5644 H   0  0  0  0  0  0  0  0  0  0  0  0
   -0.5309   30.7822    8.3020 H   0  0  0  0  0  0  0  0  0  0  0  0
   -1.8639   32.7655   11.5172 H   0  0  0  0  0  0  0  0  0  0  0  0
   -1.0081   33.2447   10.0123 H   0  0  0  0  0  0  0  0  0  0  0  0
   -2.7959   33.0710   10.0123 H   0  0  0  0  0  0  0  0  0  0  0  0
   -3.7513   30.5500    9.6947 H   0  0  0  0  0  0  0  0  0  0  0  0
   -3.1164   31.6914    8.4614 H   0  0  0  0  0  0  0  0  0  0  0  0
   -2.5772   29.9779    8.4614 H   0  0  0  0  0  0  0  0  0  0  0  0
   -2.7720   30.5470   11.7130 H   0  0  0  0  0  0  0  0  0  0  0  0
   -1.2060   30.8480   12.0050 H   0  0  0  0  0  0  0  0  0  0  0  0
   -1.5300   28.9149   13.4782 H   0  0  0  0  0  0  0  0  0  0  0  0
   -0.6934   27.5084   12.7376 H   0  0  0  0  0  0  0  0  0  0  0  0
    0.0932   29.1233   12.7376 H   0  0  0  0  0  0  0  0  0  0  0  0
   -3.2144   27.9143   12.2228 H   0  0  0  0  0  0  0  0  0  0  0  0
   -3.5870   28.7374   10.6703 H   0  0  0  0  0  0  0  0  0  0  0  0
   -2.6725   27.1914   10.6703 H   0  0  0  0  0  0  0  0  0  0  0  0
   -0.0229   27.6574   10.3972 H   0  0  0  0  0  0  0  0  0  0  0  0
   -1.1909   28.4139    9.2411 H   0  0  0  0  0  0  0  0  0  0  0  0
  1  2  1  0
  2  3  1  0
  2  4  1  0
  4  5  1  0
  5  6  1  0
  6  7  2  0
  6  8  1  0
  8  9  1  0
  9 10  1  0
 10 11  2  0
 10 12  1  0
 12 13  1  0
 13 14  1  0
 14 15  1  0
 15 16  1  0
 15 17  1  0
 15 18  1  0
 18 19  1  0
 19 20  1  0
 19 21  1  0
 19 22  1  0
 22 13  1  0
  1 23  1  0
  1 24  1  0
  1 25  1  0
  2 26  1  0
  3 27  1  0
  3 28  1  0
  3 29  1  0
  4 30  1  0
  4 31  1  0
  5 32  1  0
  5 33  1  0
  8 34  1  0
  9 35  1  0
  9 36  1  0
 12 37  1  0
 13 38  1  0
 14 39  1  0
 14 40  1  0
 16 41  1  0
 16 42  1  0
 16 43  1  0
 17 44  1  0
 17 45  1  0
 17 46  1  0
 18 47  1  0
 18 48  1  0
 20 49  1  0
 20 50  1  0
 20 51  1  0
 21 52  1  0
 21 53  1  0
 21 54  1  0
 22 55  1  0
 22 56  1  0
M  CHG  1  18   1
M  END
>  <vina_affinity>  (1) 
-7.226

$$$$
dec_C58687068
     RDKit          3D

 64 66  0  0  0  0  0  0  0  0999 V2000
    3.0070   27.3420    9.7150 C   0  0  0  0  0  0  0  0  0  0  0  0
    1.7250   28.1540    9.7420 C   0  0  0  0  0  0  0  0  0  0  0  0
    1.8890   29.4620    9.0140 N   0  0  0  0  0  0  0  0  0  0  0  0
    3.1490   29.5990    8.1790 C   0  0  0  0  0  0  0  0  0  0  0  0
    2.9270   29.3190    6.7020 C   0  0  0  0  0  0  0  0  0  0  0  0
    0.6620   29.9210    8.2450 C   0  0  0  0  0  0  0  0  0  0  0  0
   -0.4090   30.6770    9.0090 C   0  0  0  0  0  0  0  0  0  0  0  0
   -0.3670   32.0880    8.9250 C   0  0  0  0  0  0  0  0  0  0  0  0
   -1.2850   32.8890    9.6020 C   0  0  0  0  0  0  0  0  0  0  0  0
   -2.2670   32.2990   10.3830 C   0  0  0  0  0  0  0  0  0  0  0  0
   -2.3320   30.9120   10.4840 C   0  0  0  0  0  0  0  0  0  0  0  0
   -1.4130   30.0790    9.8110 C   0  0  0  0  0  0  0  0  0  0  0  0
   -1.6110   28.5890    9.9630 C   0  0  0  0  0  0  0  0  0  0  0  0
   -2.2560   28.2390   11.2040 N   0  0  0  0  0  0  0  0  0  0  0  0
   -2.3400   26.9390   11.6200 C   0  0  0  0  0  0  0  0  0  0  0  0
   -1.7250   26.0290   11.0650 O   0  0  0  0  0  0  0  0  0  0  0  0
   -3.1100   26.7920   12.7560 N   0  0  0  0  0  0  0  0  0  0  0  0
   -2.9820   25.5550   13.4440 N   0  0  0  0  0  0  0  0  0  0  0  0
   -2.0870   25.5090   14.5130 C   0  0  0  0  0  0  0  0  0  0  0  0
   -1.6050   26.5450   14.9750 O   0  0  0  0  0  0  0  0  0  0  0  0
   -1.7320   24.1800   14.9630 C   0  0  0  0  0  0  0  0  0  0  0  0
   -0.5520   23.4570   14.9590 C   0  0  0  0  0  0  0  0  0  0  0  0
   -0.8360   22.2040   15.5570 C   0  0  0  0  0  0  0  0  0  0  0  0
   -2.1740   22.2200   15.8880 C   0  0  0  0  0  0  0  0  0  0  0  0
   -3.1030   21.2380   16.5140 C   0  0  0  0  0  0  0  0  0  0  0  0
   -3.6920   21.8190   17.6780 O   0  0  0  0  0  0  0  0  0  0  0  0
   -5.0300   22.0990   17.6480 C   0  0  0  0  0  0  0  0  0  0  0  0
   -5.7810   21.2820   16.7980 C   0  0  0  0  0  0  0  0  0  0  0  0
   -7.1570   21.4710   16.6610 C   0  0  0  0  0  0  0  0  0  0  0  0
   -7.7920   22.4870   17.3690 C   0  0  0  0  0  0  0  0  0  0  0  0
   -7.0480   23.3170   18.2070 C   0  0  0  0  0  0  0  0  0  0  0  0
   -5.6700   23.1280   18.3430 C   0  0  0  0  0  0  0  0  0  0  0  0
   -2.7200   23.4210   15.5380 O   0  0  0  0  0  0  0  0  0  0  0  0
    3.3323   27.1360   10.7454 H   0  0  0  0  0  0  0  0  0  0  0  0
    2.8283   26.3920    9.1900 H   0  0  0  0  0  0  0  0  0  0  0  0
    3.7895   27.9095    9.1900 H   0  0  0  0  0  0  0  0  0  0  0  0
    0.9237   27.5742    9.2606 H   0  0  0  0  0  0  0  0  0  0  0  0
    1.4735   28.3701   10.7908 H   0  0  0  0  0  0  0  0  0  0  0  0
    2.0200   30.1980    9.7310 H   0  0  0  0  0  0  0  0  0  0  0  0
    3.5285   30.6259    8.2861 H   0  0  0  0  0  0  0  0  0  0  0  0
    3.8660   28.8505    8.5474 H   0  0  0  0  0  0  0  0  0  0  0  0
    2.2472   28.4616    6.5895 H   0  0  0  0  0  0  0  0  0  0  0  0
    2.4828   30.2044    6.2237 H   0  0  0  0  0  0  0  0  0  0  0  0
    3.8903   29.0884    6.2237 H   0  0  0  0  0  0  0  0  0  0  0  0
    1.0098   30.5760    7.4326 H   0  0  0  0  0  0  0  0  0  0  0  0
    0.1703   28.9901    7.9261 H   0  0  0  0  0  0  0  0  0  0  0  0
    0.4098   32.5655    8.3098 H   0  0  0  0  0  0  0  0  0  0  0  0
   -1.2307   33.9844    9.5171 H   0  0  0  0  0  0  0  0  0  0  0  0
   -2.9932   32.9255   10.9217 H   0  0  0  0  0  0  0  0  0  0  0  0
   -3.1181   30.4547   11.1029 H   0  0  0  0  0  0  0  0  0  0  0  0
   -2.2322   28.2293    9.1295 H   0  0  0  0  0  0  0  0  0  0  0  0
   -0.6165   28.1188    9.9603 H   0  0  0  0  0  0  0  0  0  0  0  0
   -2.9500   28.8860   11.5550 H   0  0  0  0  0  0  0  0  0  0  0  0
   -3.1040   27.5910   13.3870 H   0  0  0  0  0  0  0  0  0  0  0  0
   -3.1430   24.7230   12.8850 H   0  0  0  0  0  0  0  0  0  0  0  0
    0.4200   23.7909   14.5668 H   0  0  0  0  0  0  0  0  0  0  0  0
   -0.1272   21.3797   15.7243 H   0  0  0  0  0  0  0  0  0  0  0  0
   -3.8932   20.9714   15.7968 H   0  0  0  0  0  0  0  0  0  0  0  0
   -2.5455   20.3328   16.7966 H   0  0  0  0  0  0  0  0  0  0  0  0
   -5.2823   20.4819   16.2313 H   0  0  0  0  0  0  0  0  0  0  0  0
   -7.7389   20.8177   15.9942 H   0  0  0  0  0  0  0  0  0  0  0  0
   -8.8773   22.6349   17.2679 H   0  0  0  0  0  0  0  0  0  0  0  0
   -7.5478   24.1237   18.7632 H   0  0  0  0  0  0  0  0  0  0  0  0
   -5.0876   23.7915   18.9992 H   0  0  0  0  0  0  0  0  0  0  0  0
  1  2  1  0
  2  3  1  0
  3  4  1  0
  4  5  1  0
  3  6  1  0
  6  7  1  0
  7  8  2  0
  8  9  1  0
  9 10  2  0
 10 11  1  0
 11 12  2  0
 12 13  1  0
 13 14  1  0
 14 15  1  0
 15 16  2  0
 15 17  1  0
 17 18  1  0
 18 19  1  0
 19 20  2  0
 19 21  1  0
 21 22  2  0
 22 23  1  0
 23 24  2  0
 24 25  1  0
 25 26  1  0
 26 27  1  0
 27 28  2  0
 28 29  1  0
 29 30  2  0
 30 31  1  0
 31 32  2  0
 24 33  1  0
 12  7  1  0
 33 21  1  0
 32 27  1  0
  1 34  1  0
  1 35  1  0
  1 36  1  0
  2 37  1  0
  2 38  1  0
  3 39  1  0
  4 40  1  0
  4 41  1  0
  5 42  1  0
  5 43  1  0
  5 44  1  0
  6 45  1  0
  6 46  1  0
  8 47  1  0
  9 48  1  0
 10 49  1  0
 11 50  1  0
 13 51  1  0
 13 52  1  0
 14 53  1  0
 17 54  1  0
 18 55  1  0
 22 56  1  0
 23 57  1  0
 25 58  1  0
 25 59  1  0
 28 60  1  0
 29 61  1  0
 30 62  1  0
 31 63  1  0
 32 64  1  0
M  CHG  1   3   1
M  END
>  <vina_affinity>  (1) 
-8.659

$$$$
dec_C00277075
     RDKit          3D

 37 40  0  0  0  0  0  0  0  0999 V2000
    2.5290   23.9260   10.7850 N   0  0  0  0  0  0  0  0  0  0  0  0
    1.9260   24.9180   10.7720 C   0  0  0  0  0  0  0  0  0  0  0  0
    1.2020   26.1450   10.7770 C   0  0  0  0  0  0  0  0  0  0  0  0
    1.8020   27.3030   10.4320 C   0  0  0  0  0  0  0  0  0  0  0  0
    3.1290   27.4430   10.0890 N   0  0  0  0  0  0  0  0  0  0  0  0
    1.1180   28.5100   10.4050 O   0  0  0  0  0  0  0  0  0  0  0  0
   -0.2580   28.5340   10.4920 C   0  0  0  0  0  0  0  0  0  0  0  0
   -0.9840   27.3910   10.8400 C   0  0  0  0  0  0  0  0  0  0  0  0
   -2.3820   27.4640   10.9040 C   0  0  0  0  0  0  0  0  0  0  0  0
   -3.0380   28.6660   10.6380 C   0  0  0  0  0  0  0  0  0  0  0  0
   -2.3160   29.8200   10.3020 C   0  0  0  0  0  0  0  0  0  0  0  0
   -2.9820   31.0300   10.0400 C   0  0  0  0  0  0  0  0  0  0  0  0
   -2.2700   32.1800    9.7020 C   0  0  0  0  0  0  0  0  0  0  0  0
   -0.8840   32.1380    9.6200 C   0  0  0  0  0  0  0  0  0  0  0  0
   -0.2090   30.9430    9.8780 C   0  0  0  0  0  0  0  0  0  0  0  0
   -0.9050   29.7650   10.2240 C   0  0  0  0  0  0  0  0  0  0  0  0
   -0.2620   26.0940   11.1530 C   0  0  2  0  0  0  0  0  0  0  0  0
   -0.4520   25.6760   12.6150 C   0  0  0  0  0  0  0  0  0  0  0  0
   -0.3950   26.6580   13.6300 C   0  0  0  0  0  0  0  0  0  0  0  0
   -0.5530   26.3180   14.9740 C   0  0  0  0  0  0  0  0  0  0  0  0
   -0.7670   24.9920   15.3360 C   0  0  0  0  0  0  0  0  0  0  0  0
   -0.8270   24.0070   14.3530 C   0  0  0  0  0  0  0  0  0  0  0  0
   -0.6720   24.3420   13.0030 C   0  0  0  0  0  0  0  0  0  0  0  0
   -0.7700   23.0480   11.8610 Cl  0  0  0  0  0  0  0  0  0  0  0  0
    3.7390   26.9070   10.7010 H   0  0  0  0  0  0  0  0  0  0  0  0
    3.3440   27.3200    9.1020 H   0  0  0  0  0  0  0  0  0  0  0  0
   -2.9652   26.5687   11.1654 H   0  0  0  0  0  0  0  0  0  0  0  0
   -4.1358   28.7090   10.6925 H   0  0  0  0  0  0  0  0  0  0  0  0
   -4.0795   31.0700   10.1025 H   0  0  0  0  0  0  0  0  0  0  0  0
   -2.8052   33.1196    9.5005 H   0  0  0  0  0  0  0  0  0  0  0  0
   -0.3197   33.0435    9.3526 H   0  0  0  0  0  0  0  0  0  0  0  0
    0.8886   30.9194    9.8101 H   0  0  0  0  0  0  0  0  0  0  0  0
   -0.7253   25.3189   10.5248 H   0  0  0  0  0  0  0  0  0  0  0  0
   -0.2230   27.7092   13.3554 H   0  0  0  0  0  0  0  0  0  0  0  0
   -0.5083   27.0988   15.7476 H   0  0  0  0  0  0  0  0  0  0  0  0
   -0.8885   24.7221   16.3954 H   0  0  0  0  0  0  0  0  0  0  0  0
   -0.9974   22.9588   14.6397 H   0  0  0  0  0  0  0  0  0  0  0  0
  1  2  3  0
  2  3  1  0
  3  4  2  0
  4  5  1  0
  4  6  1  0
  6  7  1  0
  7  8  2  0
  8  9  1  0
  9 10  2  0
 10 11  1  0
 11 12  2  0
 12 13  1  0
 13 14  2  0
 14 15  1  0
 15 16  2  0
  8 17  1  0
 17 18  1  0
 18 19  2  0
 19 20  1  0
 20 21  2  0
 21 22  1  0
 22 23  2  0
 23 24  1  0
 17  3  1  0
 23 18  1  0
 16  7  1  0
 16 11  1  0
  5 25  1  0
  5 26  1  0
  9 27  1  0
 10 28  1  0
 12 29  1  0
 13 30  1  0
 14 31  1  0
 15 32  1  0
 17 33  1  6
 19 34  1  0
 20 35  1  0
 21 36  1  0
 22 37  1  0
M  END
>  <vina_affinity>  (1) 
-8.855

$$$$
dec_C33717842
     RDKit          3D

 58 60  0  0  0  0  0  0  0  0999 V2000
    4.1140   27.2810    4.4610 C   0  0  0  0  0  0  0  0  0  0  0  0
    4.4740   27.8870    5.8070 C   0  0  0  0  0  0  0  0  0  0  0  0
    3.3510   28.7250    6.4190 C   0  0  0  0  0  0  0  0  0  0  0  0
    3.6710   29.2300    7.8270 C   0  0  0  0  0  0  0  0  0  0  0  0
    2.7390   28.6980    8.8020 N   0  0  0  0  0  0  0  0  0  0  0  0
    2.8420   27.4370    9.3620 C   0  0  0  0  0  0  0  0  0  0  0  0
    3.7770   26.6610    9.3350 O   0  0  0  0  0  0  0  0  0  0  0  0
    1.4830   27.1590    9.9060 C   0  0  2  0  0  0  0  0  0  0  0  0
    1.1020   28.5560   10.3640 C   0  0  1  0  0  0  0  0  0  0  0  0
    1.5480   29.3180    9.1560 C   0  0  0  0  0  0  0  0  0  0  0  0
    1.0020   30.2560    8.6140 O   0  0  0  0  0  0  0  0  0  0  0  0
   -0.2900   28.3820   10.9210 C   0  0  2  0  0  0  0  0  0  0  0  0
   -1.4470   28.4810    9.9310 C   0  0  0  0  0  0  0  0  0  0  0  0
   -2.6700   29.2250   10.5010 C   0  0  0  0  0  0  0  0  0  0  0  0
   -3.0350   30.4560    9.6690 C   0  0  0  0  0  0  0  0  0  0  0  0
   -1.8930   31.1590    9.0980 N   0  0  0  0  0  0  0  0  0  0  0  0
   -1.4740   32.3910    9.4910 C   0  0  0  0  0  0  0  0  0  0  0  0
   -0.4870   32.8750    8.6980 N   0  0  0  0  0  0  0  0  0  0  0  0
   -1.8880   33.0230   10.4530 O   0  0  0  0  0  0  0  0  0  0  0  0
   -0.3880   29.3350   12.1510 C   0  0  0  0  0  0  0  0  0  0  0  0
    0.1460   30.4580   12.0590 O   0  0  0  0  0  0  0  0  0  0  0  0
   -1.0120   28.7510   13.0980 O   0  0  0  0  0  0  0  0  0  0  0  0
   -0.1920   26.8770   11.4530 N   0  0  0  0  0  0  0  0  0  0  0  0
    1.1830   26.3490   11.1330 C   0  0  1  0  0  0  0  0  0  0  0  0
    1.2080   24.8460   11.0160 C   0  0  0  0  0  0  0  0  0  0  0  0
    0.1200   24.1030   11.5100 C   0  0  0  0  0  0  0  0  0  0  0  0
    0.0940   22.7100   11.4070 C   0  0  0  0  0  0  0  0  0  0  0  0
    1.1520   22.0420   10.7990 C   0  0  0  0  0  0  0  0  0  0  0  0
    1.1160   20.1590   10.6510 Br  0  0  0  0  0  0  0  0  0  0  0  0
    2.2340   22.7560   10.2930 C   0  0  0  0  0  0  0  0  0  0  0  0
    2.2600   24.1510   10.3970 C   0  0  0  0  0  0  0  0  0  0  0  0
    3.5579   26.3449    4.6173 H   0  0  0  0  0  0  0  0  0  0  0  0
    3.4896   27.9884    3.8956 H   0  0  0  0  0  0  0  0  0  0  0  0
    5.0339   27.0710    3.8956 H   0  0  0  0  0  0  0  0  0  0  0  0
    4.7175   27.0703    6.5025 H   0  0  0  0  0  0  0  0  0  0  0  0
    5.3268   28.5615    5.6403 H   0  0  0  0  0  0  0  0  0  0  0  0
    3.1700   29.5939    5.7692 H   0  0  0  0  0  0  0  0  0  0  0  0
    2.4667   28.0757    6.4990 H   0  0  0  0  0  0  0  0  0  0  0  0
    4.6901   28.9163    8.0972 H   0  0  0  0  0  0  0  0  0  0  0  0
    3.5878   30.3268    7.8297 H   0  0  0  0  0  0  0  0  0  0  0  0
    0.9998   26.5654    9.1160 H   0  0  0  0  0  0  0  0  0  0  0  0
    1.5204   29.1454   11.1932 H   0  0  0  0  0  0  0  0  0  0  0  0
   -1.0971   29.0170    9.0364 H   0  0  0  0  0  0  0  0  0  0  0  0
   -1.7673   27.4548    9.6981 H   0  0  0  0  0  0  0  0  0  0  0  0
   -3.5289   28.5379   10.5132 H   0  0  0  0  0  0  0  0  0  0  0  0
   -2.4163   29.5655   11.5157 H   0  0  0  0  0  0  0  0  0  0  0  0
   -3.6869   30.1324    8.8442 H   0  0  0  0  0  0  0  0  0  0  0  0
   -3.5270   31.1623   10.3539 H   0  0  0  0  0  0  0  0  0  0  0  0
   -1.7010   30.9510    8.1280 H   0  0  0  0  0  0  0  0  0  0  0  0
    0.1810   32.2010    8.3490 H   0  0  0  0  0  0  0  0  0  0  0  0
   -0.0650   33.7280    9.0410 H   0  0  0  0  0  0  0  0  0  0  0  0
   -0.3220   27.0110   12.4830 H   0  0  0  0  0  0  0  0  0  0  0  0
   -0.9720   26.2900   11.0960 H   0  0  0  0  0  0  0  0  0  0  0  0
    1.9633   26.4687   11.8990 H   0  0  0  0  0  0  0  0  0  0  0  0
   -0.7229   24.6269   11.9845 H   0  0  0  0  0  0  0  0  0  0  0  0
   -0.7604   22.1432   11.8054 H   0  0  0  0  0  0  0  0  0  0  0  0
    3.0680   22.2242    9.8117 H   0  0  0  0  0  0  0  0  0  0  0  0
    3.1148   24.7103    9.9890 H   0  0  0  0  0  0  0  0  0  0  0  0
  1  2  1  0
  2  3  1  0
  3  4  1  0
  4  5  1  0
  5  6  1  0
  6  7  2  0
  6  8  1  0
  8  9  1  0
  9 10  1  0
 10 11  2  0
  9 12  1  0
 12 13  1  6
 13 14  1  0
 14 15  1  0
 15 16  1  0
 16 17  1  0
 17 18  1  0
 17 19  2  0
 12 20  1  0
 20 21  2  0
 20 22  1  0
 12 23  1  0
 23 24  1  0
 24 25  1  0
 25 26  2  0
 26 27  1  0
 27 28  2  0
 28 29  1  0
 28 30  1  0
 30 31  2  0
 10  5  1  0
 31 25  1  0
 24  8  1  0
  1 32  1  0
  1 33  1  0
  1 34  1  0
  2 35  1  0
  2 36  1  0
  3 37  1  0
  3 38  1  0
  4 39  1  0
  4 40  1  0
  8 41  1  6
  9 42  1  1
 13 43  1  0
 13 44  1  0
 14 45  1  0
 14 46  1  0
 15 47  1  0
 15 48  1  0
 16 49  1  0
 18 50  1  0
 18 51  1  0
 23 52  1  0
 23 53  1  0
 24 54  1  1
 26 55  1  0
 27 56  1  0
 30 57  1  0
 31 58  1  0
M  CHG  2  22  -1  23   1
M  END
>  <vina_affinity>  (1) 
-7.196

$$$$
dec_C25308824
     RDKit          3D

 51 55  0  0  0  0  0  0  0  0999 V2000
   -3.3840   25.5610   15.8040 C   0  0  0  0  0  0  0  0  0  0  0  0
   -2.3810   25.8080   14.7230 C   0  0  0  0  0  0  0  0  0  0  0  0
   -2.2220   27.0680   14.1450 C   0  0  0  0  0  0  0  0  0  0  0  0
   -1.2710   27.2990   13.1290 C   0  0  0  0  0  0  0  0  0  0  0  0
   -1.1460   28.6860   12.5500 C   0  0  0  0  0  0  0  0  0  0  0  0
   -0.4800   26.2000   12.6990 C   0  0  0  0  0  0  0  0  0  0  0  0
    0.5520   26.0260   11.7210 C   0  0  0  0  0  0  0  0  0  0  0  0
    1.0550   24.7480   11.6820 C   0  0  0  0  0  0  0  0  0  0  0  0
    0.2870   23.7130   12.7800 S   0  0  0  0  0  0  0  0  0  0  0  0
   -0.6980   24.9800   13.3290 C   0  0  0  0  0  0  0  0  0  0  0  0
   -1.6170   24.7920   14.3090 N   0  0  0  0  0  0  0  0  0  0  0  0
    2.1290   24.3430   10.8130 C   0  0  0  0  0  0  0  0  0  0  0  0
    2.6050   23.2120   10.7610 O   0  0  0  0  0  0  0  0  0  0  0  0
    2.6230   25.3640   10.0450 N   0  0  0  0  0  0  0  0  0  0  0  0
    1.8230   26.5090    9.7040 C   0  0  2  0  0  0  0  0  0  0  0  0
    2.6960   27.6260    9.1730 C   0  0  0  0  0  0  0  0  0  0  0  0
    4.0730   27.4310    8.9580 C   0  0  0  0  0  0  0  0  0  0  0  0
    4.8740   28.4590    8.4580 C   0  0  0  0  0  0  0  0  0  0  0  0
    4.3090   29.6970    8.1640 C   0  0  0  0  0  0  0  0  0  0  0  0
    2.9410   29.9010    8.3430 C   0  0  0  0  0  0  0  0  0  0  0  0
    2.1330   28.8620    8.8130 C   0  0  0  0  0  0  0  0  0  0  0  0
    0.7840   29.0170    8.9970 O   0  0  0  0  0  0  0  0  0  0  0  0
    0.1820   30.0620    8.2120 C   0  0  0  0  0  0  0  0  0  0  0  0
   -0.8480   30.8880    8.9600 C   0  0  0  0  0  0  0  0  0  0  0  0
   -0.5550   32.2090    9.3030 C   0  0  0  0  0  0  0  0  0  0  0  0
   -1.4710   32.9300   10.0630 C   0  0  0  0  0  0  0  0  0  0  0  0
   -2.6450   32.3170   10.4800 C   0  0  0  0  0  0  0  0  0  0  0  0
   -2.8640   31.0040   10.1050 C   0  0  0  0  0  0  0  0  0  0  0  0
   -2.0070   30.2820    9.3390 N   0  0  0  0  0  0  0  0  0  0  0  0
    1.0730   26.9550   10.8860 N   0  0  0  0  0  0  0  0  0  0  0  0
   -2.9019   25.6797   16.7856 H   0  0  0  0  0  0  0  0  0  0  0  0
   -4.2088   26.2829   15.7109 H   0  0  0  0  0  0  0  0  0  0  0  0
   -3.7792   24.5387   15.7109 H   0  0  0  0  0  0  0  0  0  0  0  0
   -2.8529   27.9006   14.4896 H   0  0  0  0  0  0  0  0  0  0  0  0
   -1.0799   29.4197   13.3669 H   0  0  0  0  0  0  0  0  0  0  0  0
   -0.2390   28.7443   11.9304 H   0  0  0  0  0  0  0  0  0  0  0  0
   -2.0280   28.9056   11.9304 H   0  0  0  0  0  0  0  0  0  0  0  0
   -1.6990   23.8600   14.7080 H   0  0  0  0  0  0  0  0  0  0  0  0
    3.2270   25.0410    9.2950 H   0  0  0  0  0  0  0  0  0  0  0  0
    1.1110   26.2287    8.9138 H   0  0  0  0  0  0  0  0  0  0  0  0
    4.5246   26.4545    9.1872 H   0  0  0  0  0  0  0  0  0  0  0  0
    5.9491   28.2914    8.2966 H   0  0  0  0  0  0  0  0  0  0  0  0
    4.9422   30.5151    7.7901 H   0  0  0  0  0  0  0  0  0  0  0  0
    2.4973   30.8811    8.1139 H   0  0  0  0  0  0  0  0  0  0  0  0
    0.9793   30.7362    7.8659 H   0  0  0  0  0  0  0  0  0  0  0  0
   -0.3491   29.5692    7.3843 H   0  0  0  0  0  0  0  0  0  0  0  0
    0.3872   32.6737    8.9770 H   0  0  0  0  0  0  0  0  0  0  0  0
   -1.2667   33.9770   10.3312 H   0  0  0  0  0  0  0  0  0  0  0  0
   -3.3803   32.8605   11.0915 H   0  0  0  0  0  0  0  0  0  0  0  0
   -3.7880   30.5155   10.4480 H   0  0  0  0  0  0  0  0  0  0  0  0
    0.6130   27.8460   10.7190 H   0  0  0  0  0  0  0  0  0  0  0  0
  1  2  1  0
  2  3  2  0
  3  4  1  0
  4  5  1  0
  4  6  2  0
  6  7  1  0
  7  8  2  0
  8  9  1  0
  9 10  1  0
 10 11  2  0
  8 12  1  0
 12 13  2  0
 12 14  1  0
 14 15  1  0
 15 16  1  0
 16 17  2  0
 17 18  1  0
 18 19  2  0
 19 20  1  0
 20 21  2  0
 21 22  1  0
 22 23  1  0
 23 24  1  0
 24 25  2  0
 25 26  1  0
 26 27  2  0
 27 28  1  0
 28 29  2  0
 15 30  1  0
 11  2  1  0
 21 16  1  0
 29 24  1  0
 10  6  1  0
 30  7  1  0
  1 31  1  0
  1 32  1  0
  1 33  1  0
  3 34  1  0
  5 35  1  0
  5 36  1  0
  5 37  1  0
 11 38  1  0
 14 39  1  0
 15 40  1  6
 17 41  1  0
 18 42  1  0
 19 43  1  0
 20 44  1  0
 23 45  1  0
 23 46  1  0
 25 47  1  0
 26 48  1  0
 27 49  1  0
 28 50  1  0
 30 51  1  0
M  CHG  1  11   1
M  END
>  <vina_affinity>  (1) 
-8.971

$$$$
dec_C06743289
     RDKit          3D

 48 51  0  0  0  0  0  0  0  0999 V2000
    1.6750   21.1820   12.6100 C   0  0  0  0  0  0  0  0  0  0  0  0
    0.7060   21.6890   13.3850 C   0  0  0  0  0  0  0  0  0  0  0  0
   -0.6200   22.1630   12.8730 C   0  0  0  0  0  0  0  0  0  0  0  0
   -0.8190   23.5350   13.2720 N   0  0  0  0  0  0  0  0  0  0  0  0
   -1.0170   23.9190   14.6050 C   0  0  0  0  0  0  0  0  0  0  0  0
   -0.9510   23.2390   15.6120 O   0  0  0  0  0  0  0  0  0  0  0  0
   -1.3250   25.2960   14.5060 C   0  0  0  0  0  0  0  0  0  0  0  0
   -1.6460   26.3270   15.3020 N   0  0  0  0  0  0  0  0  0  0  0  0
   -1.9090   27.4490   14.5840 N   0  0  0  0  0  0  0  0  0  0  0  0
   -1.6940   27.0960   13.2930 C   0  0  0  0  0  0  0  0  0  0  0  0
   -1.8960   28.0310   12.1930 C   0  0  0  0  0  0  0  0  0  0  0  0
   -0.8380   28.8470   11.7390 C   0  0  0  0  0  0  0  0  0  0  0  0
    0.5420   28.7570   12.3330 C   0  0  0  0  0  0  0  0  0  0  0  0
   -1.0730   29.7510   10.6890 C   0  0  0  0  0  0  0  0  0  0  0  0
   -2.3390   29.8700   10.1010 C   0  0  0  0  0  0  0  0  0  0  0  0
   -2.5580   30.8190    8.9610 C   0  0  0  0  0  0  0  0  0  0  0  0
   -3.3790   29.0480   10.5490 C   0  0  0  0  0  0  0  0  0  0  0  0
   -3.1560   28.1410   11.5860 C   0  0  0  0  0  0  0  0  0  0  0  0
   -4.1880   27.3440   12.0090 O   0  0  0  0  0  0  0  0  0  0  0  0
   -1.3320   25.7430   13.2180 C   0  0  0  0  0  0  0  0  0  0  0  0
   -1.0340   24.6360   12.2860 C   0  0  1  0  0  0  0  0  0  0  0  0
    0.1910   24.9950   11.4940 C   0  0  0  0  0  0  0  0  0  0  0  0
    1.5010   24.7820   11.9620 C   0  0  0  0  0  0  0  0  0  0  0  0
    2.6050   25.1330   11.1780 C   0  0  0  0  0  0  0  0  0  0  0  0
    2.4200   25.7010    9.9180 C   0  0  0  0  0  0  0  0  0  0  0  0
    1.1290   25.9190    9.4420 C   0  0  0  0  0  0  0  0  0  0  0  0
    0.0350   25.5670   10.2280 C   0  0  0  0  0  0  0  0  0  0  0  0
   -1.1970   25.7770    9.7380 F   0  0  0  0  0  0  0  0  0  0  0  0
    2.6240   20.8544   13.0596 H   0  0  0  0  0  0  0  0  0  0  0  0
    1.5212   21.0935   11.5244 H   0  0  0  0  0  0  0  0  0  0  0  0
    0.8964   21.7617   14.4660 H   0  0  0  0  0  0  0  0  0  0  0  0
   -0.6371   22.0928   11.7754 H   0  0  0  0  0  0  0  0  0  0  0  0
   -1.4226   21.5366   13.2895 H   0  0  0  0  0  0  0  0  0  0  0  0
   -1.7330   26.3560   16.3130 H   0  0  0  0  0  0  0  0  0  0  0  0
    0.4698   28.7617   13.4306 H   0  0  0  0  0  0  0  0  0  0  0  0
    1.0240   27.8255   12.0013 H   0  0  0  0  0  0  0  0  0  0  0  0
    1.1409   29.6180   12.0013 H   0  0  0  0  0  0  0  0  0  0  0  0
   -0.2468   30.3774   10.3216 H   0  0  0  0  0  0  0  0  0  0  0  0
   -2.7889   31.8194    9.3559 H   0  0  0  0  0  0  0  0  0  0  0  0
   -1.6478   30.8689    8.3454 H   0  0  0  0  0  0  0  0  0  0  0  0
   -3.3980   30.4650    8.3454 H   0  0  0  0  0  0  0  0  0  0  0  0
   -4.3732   29.1168   10.0834 H   0  0  0  0  0  0  0  0  0  0  0  0
   -4.9750   27.5270   11.4730 H   0  0  0  0  0  0  0  0  0  0  0  0
   -1.7884   24.3860   11.5255 H   0  0  0  0  0  0  0  0  0  0  0  0
    1.6584   24.3349   12.9546 H   0  0  0  0  0  0  0  0  0  0  0  0
    3.6231   24.9603   11.5569 H   0  0  0  0  0  0  0  0  0  0  0  0
    3.2895   25.9757    9.3027 H   0  0  0  0  0  0  0  0  0  0  0  0
    0.9746   26.3673    8.4494 H   0  0  0  0  0  0  0  0  0  0  0  0
  1  2  2  0
  2  3  1  0
  3  4  1  0
  4  5  1  0
  5  6  2  0
  5  7  1  0
  7  8  1  0
  8  9  1  0
  9 10  2  0
 10 11  1  0
 11 12  2  0
 12 13  1  0
 12 14  1  0
 14 15  2  0
 15 16  1  0
 15 17  1  0
 17 18  2  0
 18 19  1  0
 10 20  1  0
 20 21  1  0
 21 22  1  0
 22 23  2  0
 23 24  1  0
 24 25  2  0
 25 26  1  0
 26 27  2  0
 27 28  1  0
 21  4  1  0
 27 22  1  0
 20  7  2  0
 18 11  1  0
  1 29  1  0
  1 30  1  0
  2 31  1  0
  3 32  1  0
  3 33  1  0
  8 34  1  0
 13 35  1  0
 13 36  1  0
 13 37  1  0
 14 38  1  0
 16 39  1  0
 16 40  1  0
 16 41  1  0
 17 42  1  0
 19 43  1  0
 21 44  1  6
 23 45  1  0
 24 46  1  0
 25 47  1  0
 26 48  1  0
M  END
>  <vina_affinity>  (1) 
-6.738

$$$$
dec_C67480695
     RDKit          3D

 62 65  0  0  0  0  0  0  0  0999 V2000
   -5.2530   23.5390   16.3630 C   0  0  0  0  0  0  0  0  0  0  0  0
   -3.8260   23.7630   15.8780 C   0  0  2  0  0  0  0  0  0  0  0  0
   -3.8390   24.4440   14.5870 N   0  0  0  0  0  0  0  0  0  0  0  0
   -3.1040   25.5780   14.4110 C   0  0  0  0  0  0  0  0  0  0  0  0
   -2.6700   26.2830   15.3130 O   0  0  0  0  0  0  0  0  0  0  0  0
   -3.0180   25.9540   13.0990 N   0  0  0  0  0  0  0  0  0  0  0  0
   -1.9810   26.8550   12.6030 C   0  0  0  0  0  0  0  0  0  0  0  0
   -0.8870   26.3100   11.6500 C   0  0  2  0  0  0  0  0  0  0  0  0
    0.2160   25.5340   12.3610 C   0  0  0  0  0  0  0  0  0  0  0  0
    1.2970   25.4550   11.3030 C   0  0  0  0  0  0  0  0  0  0  0  0
    1.2650   26.8080   10.6130 C   0  0  0  0  0  0  0  0  0  0  0  0
   -0.1130   27.3710   10.8900 N   0  0  1  0  0  0  0  0  0  0  0  0
   -0.8340   27.9600    9.7170 C   0  0  0  0  0  0  0  0  0  0  0  0
   -1.1310   29.4560    9.9140 C   0  0  0  0  0  0  0  0  0  0  0  0
   -0.5680   30.2650    8.7390 C   0  0  0  0  0  0  0  0  0  0  0  0
   -0.7090   31.7740    8.9610 C   0  0  0  0  0  0  0  0  0  0  0  0
   -1.8970   32.1530    9.8450 C   0  0  0  0  0  0  0  0  0  0  0  0
   -3.0450   31.1660    9.6980 C   0  0  0  0  0  0  0  0  0  0  0  0
   -2.6360   29.7430   10.0860 C   0  0  0  0  0  0  0  0  0  0  0  0
   -3.1180   22.4620   15.6760 C   0  0  0  0  0  0  0  0  0  0  0  0
   -3.6540   21.2470   15.7110 N   0  0  0  0  0  0  0  0  0  0  0  0
   -2.6580   20.3120   15.4510 N   0  0  0  0  0  0  0  0  0  0  0  0
   -1.5560   20.9900   15.2780 C   0  0  0  0  0  0  0  0  0  0  0  0
   -1.8060   22.3160   15.4110 N   0  0  0  0  0  0  0  0  0  0  0  0
   -0.6380   23.1400   15.2230 C   0  0  0  0  0  0  0  0  0  0  0  0
    0.3550   22.1450   14.5860 C   0  0  0  0  0  0  0  0  0  0  0  0
   -0.1400   20.7270   14.9790 C   0  0  0  0  0  0  0  0  0  0  0  0
   -5.2703   23.5363   17.4629 H   0  0  0  0  0  0  0  0  0  0  0  0
   -5.8987   24.3468   15.9881 H   0  0  0  0  0  0  0  0  0  0  0  0
   -5.6202   22.5722   15.9881 H   0  0  0  0  0  0  0  0  0  0  0  0
   -3.3116   24.3635   16.6427 H   0  0  0  0  0  0  0  0  0  0  0  0
   -3.7870   23.7850   13.8200 H   0  0  0  0  0  0  0  0  0  0  0  0
   -3.2660   25.2130   12.4540 H   0  0  0  0  0  0  0  0  0  0  0  0
   -2.4933   27.6691   12.0693 H   0  0  0  0  0  0  0  0  0  0  0  0
   -1.4208   27.1273   13.5097 H   0  0  0  0  0  0  0  0  0  0  0  0
   -1.4959   25.6848   10.9804 H   0  0  0  0  0  0  0  0  0  0  0  0
    0.5705   26.0734   13.2517 H   0  0  0  0  0  0  0  0  0  0  0  0
   -0.1087   24.5499   12.7300 H   0  0  0  0  0  0  0  0  0  0  0  0
    2.2795   25.2791   11.7654 H   0  0  0  0  0  0  0  0  0  0  0  0
    1.1293   24.6262   10.5994 H   0  0  0  0  0  0  0  0  0  0  0  0
    2.0407   27.4691   11.0269 H   0  0  0  0  0  0  0  0  0  0  0  0
    1.4607   26.7206    9.5341 H   0  0  0  0  0  0  0  0  0  0  0  0
    0.0450   28.1140   11.5970 H   0  0  0  0  0  0  0  0  0  0  0  0
   -0.2107   27.8371    8.8190 H   0  0  0  0  0  0  0  0  0  0  0  0
   -1.7945   27.4345    9.6103 H   0  0  0  0  0  0  0  0  0  0  0  0
   -0.6355   29.7647   10.8463 H   0  0  0  0  0  0  0  0  0  0  0  0
    0.4981   30.0219    8.6189 H   0  0  0  0  0  0  0  0  0  0  0  0
   -1.1408   29.9993    7.8383 H   0  0  0  0  0  0  0  0  0  0  0  0
    0.2111   32.1431    9.4376 H   0  0  0  0  0  0  0  0  0  0  0  0
   -0.8811   32.2309    7.9753 H   0  0  0  0  0  0  0  0  0  0  0  0
   -1.5701   32.1658   10.8952 H   0  0  0  0  0  0  0  0  0  0  0  0
   -2.2551   33.1447    9.5315 H   0  0  0  0  0  0  0  0  0  0  0  0
   -3.8731   31.4863   10.3473 H   0  0  0  0  0  0  0  0  0  0  0  0
   -3.3476   31.1544    8.6405 H   0  0  0  0  0  0  0  0  0  0  0  0
   -2.9007   29.5823   11.1415 H   0  0  0  0  0  0  0  0  0  0  0  0
   -3.1703   29.0614    9.4078 H   0  0  0  0  0  0  0  0  0  0  0  0
   -0.8477   23.9831   14.5483 H   0  0  0  0  0  0  0  0  0  0  0  0
   -0.2686   23.6050   16.1489 H   0  0  0  0  0  0  0  0  0  0  0  0
    0.3587   22.2579   13.4918 H   0  0  0  0  0  0  0  0  0  0  0  0
    1.3818   22.3228   14.9381 H   0  0  0  0  0  0  0  0  0  0  0  0
   -0.0292   20.0165   14.1466 H   0  0  0  0  0  0  0  0  0  0  0  0
    0.4184   20.2682   15.8083 H   0  0  0  0  0  0  0  0  0  0  0  0
  1  2  1  0
  2  3  1  0
  3  4  1  0
  4  5  2  0
  4  6  1  0
  6  7  1  0
  7  8  1  0
  8  9  1  0
  9 10  1  0
 10 11  1  0
 11 12  1  0
 12 13  1  0
 13 14  1  0
 14 15  1  0
 15 16  1  0
 16 17  1  0
 17 18  1  0
 18 19  1  0
  2 20  1  0
 20 21  2  0
 21 22  1  0
 22 23  2  0
 23 24  1  0
 24 25  1  0
 25 26  1  0
 26 27  1  0
 12  8  1  0
 19 14  1  0
 24 20  1  0
 27 23  1  0
  1 28  1  0
  1 29  1  0
  1 30  1  0
  2 31  1  1
  3 32  1  0
  6 33  1  0
  7 34  1  0
  7 35  1  0
  8 36  1  6
  9 37  1  0
  9 38  1  0
 10 39  1  0
 10 40  1  0
 11 41  1  0
 11 42  1  0
 12 43  1  1
 13 44  1  0
 13 45  1  0
 14 46  1  0
 15 47  1  0
 15 48  1  0
 16 49  1  0
 16 50  1  0
 17 51  1  0
 17 52  1  0
 18 53  1  0
 18 54  1  0
 19 55  1  0
 19 56  1  0
 25 57  1  0
 25 58  1  0
 26 59  1  0
 26 60  1  0
 27 61  1  0
 27 62  1  0
M  CHG  1  12   1
M  END
>  <vina_affinity>  (1) 
-8.300

$$$$
dec_C63824299
     RDKit          3D

 55 58  0  0  0  0  0  0  0  0999 V2000
   -3.2630   20.6930   17.5370 C   0  0  0  0  0  0  0  0  0  0  0  0
   -1.9140   21.1700   16.9770 C   0  0  1  0  0  0  0  0  0  0  0  0
   -0.8670   20.0490   17.1170 C   0  0  0  0  0  0  0  0  0  0  0  0
   -1.0590   18.9220   16.1070 C   0  0  0  0  0  0  0  0  0  0  0  0
   -1.0770   19.4460   14.6770 C   0  0  0  0  0  0  0  0  0  0  0  0
   -2.1220   20.5420   14.4770 C   0  0  0  0  0  0  0  0  0  0  0  0
   -2.0210   21.6670   15.5150 C   0  0  1  0  0  0  0  0  0  0  0  0
   -3.1090   22.6110   15.3360 N   0  0  0  0  0  0  0  0  0  0  0  0
   -2.6910   23.8670   14.9790 C   0  0  0  0  0  0  0  0  0  0  0  0
   -3.4310   24.8220   14.8270 O   0  0  0  0  0  0  0  0  0  0  0  0
   -1.3430   23.8450   14.8310 N   0  0  0  0  0  0  0  0  0  0  0  0
   -0.5520   25.0160   14.5300 C   0  0  0  0  0  0  0  0  0  0  0  0
   -0.2210   25.0210   13.0370 C   0  0  0  0  0  0  0  0  0  0  0  0
   -0.5360   24.1080   12.2750 O   0  0  0  0  0  0  0  0  0  0  0  0
    0.3440   26.2030   12.5880 N   0  0  0  0  0  0  0  0  0  0  0  0
    0.6770   26.4090   11.1840 C   0  0  0  0  0  0  0  0  0  0  0  0
   -0.5580   26.5240   10.2670 C   0  0  0  0  0  0  0  0  0  0  0  0
   -1.3990   27.7340   10.5450 C   0  0  0  0  0  0  0  0  0  0  0  0
   -1.3030   28.9500    9.9880 C   0  0  0  0  0  0  0  0  0  0  0  0
   -0.4150   29.5680    9.0540 C   0  0  0  0  0  0  0  0  0  0  0  0
   -0.7050   30.8050    8.6190 C   0  0  0  0  0  0  0  0  0  0  0  0
   -1.8960   31.5190    9.0570 C   0  0  0  0  0  0  0  0  0  0  0  0
   -2.7940   31.0010    9.9130 C   0  0  0  0  0  0  0  0  0  0  0  0
   -2.5270   29.6510   10.4290 C   0  0  0  0  0  0  0  0  0  0  0  0
   -3.2430   28.9430   11.2110 N   0  0  0  0  0  0  0  0  0  0  0  0
   -2.6010   27.6460   11.4490 C   0  0  0  0  0  0  0  0  0  0  0  0
   -0.8390   22.6210   15.1760 C   0  0  0  0  0  0  0  0  0  0  0  0
    0.3550   22.3350   15.2430 O   0  0  0  0  0  0  0  0  0  0  0  0
   -3.2286   20.7052   18.6364 H   0  0  0  0  0  0  0  0  0  0  0  0
   -4.0625   21.3629   17.1878 H   0  0  0  0  0  0  0  0  0  0  0  0
   -3.4637   19.6694   17.1878 H   0  0  0  0  0  0  0  0  0  0  0  0
   -1.5903   22.0385   17.5694 H   0  0  0  0  0  0  0  0  0  0  0  0
    0.1329   20.4835   16.9710 H   0  0  0  0  0  0  0  0  0  0  0  0
   -0.9842   19.6139   18.1205 H   0  0  0  0  0  0  0  0  0  0  0  0
   -0.2331   18.2032   16.2132 H   0  0  0  0  0  0  0  0  0  0  0  0
   -2.0275   18.4411   16.3089 H   0  0  0  0  0  0  0  0  0  0  0  0
   -0.0844   19.8549   14.4371 H   0  0  0  0  0  0  0  0  0  0  0  0
   -1.3358   18.6077   14.0135 H   0  0  0  0  0  0  0  0  0  0  0  0
   -1.9862   20.9765   13.4756 H   0  0  0  0  0  0  0  0  0  0  0  0
   -3.1118   20.0764   14.5935 H   0  0  0  0  0  0  0  0  0  0  0  0
   -4.0940   22.4250   15.4850 H   0  0  0  0  0  0  0  0  0  0  0  0
   -1.1218   25.9218   14.7847 H   0  0  0  0  0  0  0  0  0  0  0  0
    0.3778   24.9982   15.1174 H   0  0  0  0  0  0  0  0  0  0  0  0
    0.7660   26.8290   13.2670 H   0  0  0  0  0  0  0  0  0  0  0  0
    1.2618   27.3367   11.0978 H   0  0  0  0  0  0  0  0  0  0  0  0
    1.2430   25.5255   10.8537 H   0  0  0  0  0  0  0  0  0  0  0  0
   -0.2135   26.5717    9.2234 H   0  0  0  0  0  0  0  0  0  0  0  0
   -1.1867   25.6420   10.4590 H   0  0  0  0  0  0  0  0  0  0  0  0
    0.4844   29.0430    8.7000 H   0  0  0  0  0  0  0  0  0  0  0  0
   -0.0213   31.2942    7.9095 H   0  0  0  0  0  0  0  0  0  0  0  0
   -2.0697   32.5331    8.6680 H   0  0  0  0  0  0  0  0  0  0  0  0
   -3.6901   31.5634   10.2142 H   0  0  0  0  0  0  0  0  0  0  0  0
   -4.1840   29.2060   11.5010 H   0  0  0  0  0  0  0  0  0  0  0  0
   -2.3041   27.5321   12.5020 H   0  0  0  0  0  0  0  0  0  0  0  0
   -3.2503   26.7811   11.2481 H   0  0  0  0  0  0  0  0  0  0  0  0
  1  2  1  0
  2  3  1  0
  3  4  1  0
  4  5  1  0
  5  6  1  0
  6  7  1  0
  7  8  1  1
  8  9  1  0
  9 10  2  0
  9 11  1  0
 11 12  1  0
 12 13  1  0
 13 14  2  0
 13 15  1  0
 15 16  1  0
 16 17  1  0
 17 18  1  0
 18 19  2  0
 19 20  1  0
 20 21  2  0
 21 22  1  0
 22 23  2  0
 23 24  1  0
 24 25  2  0
 25 26  1  0
 11 27  1  0
 27 28  2  0
  7  2  1  0
 26 18  1  0
 27  7  1  0
 24 19  1  0
  1 29  1  0
  1 30  1  0
  1 31  1  0
  2 32  1  1
  3 33  1  0
  3 34  1  0
  4 35  1  0
  4 36  1  0
  5 37  1  0
  5 38  1  0
  6 39  1  0
  6 40  1  0
  8 41  1  0
 12 42  1  0
 12 43  1  0
 15 44  1  0
 16 45  1  0
 16 46  1  0
 17 47  1  0
 17 48  1  0
 20 49  1  0
 21 50  1  0
 22 51  1  0
 23 52  1  0
 25 53  1  0
 26 54  1  0
 26 55  1  0
M  CHG  1  25   1
M  END
>  <vina_affinity>  (1) 
-8.848

$$$$
dec_C37549242
     RDKit          3D

 32 33  0  0  0  0  0  0  0  0999 V2000
   -0.7090   30.2630   10.1250 C   0  0  0  0  0  0  0  0  0  0  0  0
    0.5540   29.5610    9.6980 C   0  0  0  0  0  0  0  0  0  0  0  0
    1.2610   30.0880    8.6020 C   0  0  0  0  0  0  0  0  0  0  0  0
    2.4370   29.4880    8.1560 C   0  0  0  0  0  0  0  0  0  0  0  0
    2.9200   28.3540    8.8000 C   0  0  0  0  0  0  0  0  0  0  0  0
    4.1270   27.7360    8.3430 C   0  0  0  0  0  0  0  0  0  0  0  0
    5.1400   27.2180    7.9590 C   0  0  0  0  0  0  0  0  0  0  0  0
    6.3680   26.5900    7.4810 C   0  0  0  0  0  0  0  0  0  0  0  0
    7.1050   26.0870    8.5860 O   0  0  0  0  0  0  0  0  0  0  0  0
    2.2280   27.8190    9.8920 C   0  0  0  0  0  0  0  0  0  0  0  0
    1.0440   28.4070   10.3560 C   0  0  0  0  0  0  0  0  0  0  0  0
    0.3130   27.8970   11.4580 N   0  0  0  0  0  0  0  0  0  0  0  0
   -0.5890   26.8400   11.4820 C   0  0  0  0  0  0  0  0  0  0  0  0
   -0.8950   26.1650   10.5040 O   0  0  0  0  0  0  0  0  0  0  0  0
   -1.1640   26.5820   12.7990 C   0  0  0  0  0  0  0  0  0  0  0  0
   -0.6930   26.7070   14.0960 C   0  0  0  0  0  0  0  0  0  0  0  0
   -1.7410   26.2940   14.9580 C   0  0  0  0  0  0  0  0  0  0  0  0
   -2.7950   25.9400   14.1480 C   0  0  0  0  0  0  0  0  0  0  0  0
   -4.3300   25.3620   14.6550 Cl  0  0  0  0  0  0  0  0  0  0  0  0
   -2.4520   26.1110   12.8440 O   0  0  0  0  0  0  0  0  0  0  0  0
   -0.7595   30.2910   11.2235 H   0  0  0  0  0  0  0  0  0  0  0  0
   -0.7085   31.2903    9.7316 H   0  0  0  0  0  0  0  0  0  0  0  0
   -1.5811   29.7202    9.7316 H   0  0  0  0  0  0  0  0  0  0  0  0
    0.8809   30.9847    8.0907 H   0  0  0  0  0  0  0  0  0  0  0  0
    2.9811   29.9097    7.2980 H   0  0  0  0  0  0  0  0  0  0  0  0
    6.1159   25.7625    6.8015 H   0  0  0  0  0  0  0  0  0  0  0  0
    6.9749   27.3341    6.9443 H   0  0  0  0  0  0  0  0  0  0  0  0
    6.8760   25.1470    8.6660 H   0  0  0  0  0  0  0  0  0  0  0  0
    2.6199   26.9223   10.3943 H   0  0  0  0  0  0  0  0  0  0  0  0
    0.4710   28.3640   12.3350 H   0  0  0  0  0  0  0  0  0  0  0  0
    0.3039   27.0594   14.3994 H   0  0  0  0  0  0  0  0  0  0  0  0
   -1.7159   26.2629   16.0573 H   0  0  0  0  0  0  0  0  0  0  0  0
  1  2  1  0
  2  3  2  0
  3  4  1  0
  4  5  2  0
  5  6  1  0
  6  7  3  0
  7  8  1  0
  8  9  1  0
  5 10  1  0
 10 11  2  0
 11 12  1  0
 12 13  1  0
 13 14  2  0
 13 15  1  0
 15 16  2  0
 16 17  1  0
 17 18  2  0
 18 19  1  0
 18 20  1  0
 11  2  1  0
 20 15  1  0
  1 21  1  0
  1 22  1  0
  1 23  1  0
  3 24  1  0
  4 25  1  0
  8 26  1  0
  8 27  1  0
  9 28  1  0
 10 29  1  0
 12 30  1  0
 16 31  1  0
 17 32  1  0
M  END
>  <vina_affinity>  (1) 
-7.539

$$$$
dec_C63646955
     RDKit          3D

 31 33  0  0  0  0  0  0  0  0999 V2000
   -0.7940   23.5120   15.1960 C   0  0  0  0  0  0  0  0  0  0  0  0
   -0.9560   24.6800   14.2890 C   0  0  0  0  0  0  0  0  0  0  0  0
   -1.1960   24.6400   12.9710 C   0  0  0  0  0  0  0  0  0  0  0  0
   -1.2670   25.8690   12.3560 N   0  0  0  0  0  0  0  0  0  0  0  0
   -1.3370   26.0690   10.9960 C   0  0  0  0  0  0  0  0  0  0  0  0
   -1.5630   25.1940   10.1650 O   0  0  0  0  0  0  0  0  0  0  0  0
   -1.0420   27.4560   10.5380 C   0  0  0  0  0  0  0  0  0  0  0  0
   -0.5400   28.3480   11.4130 C   0  0  0  0  0  0  0  0  0  0  0  0
   -0.1370   29.7450   10.9920 C   0  0  0  0  0  0  0  0  0  0  0  0
   -0.7230   30.1090    9.3140 S   0  0  0  0  0  0  0  0  0  0  0  0
    0.7820   30.1870    8.4430 C   0  0  0  0  0  0  0  0  0  0  0  0
    0.9590   30.9840    7.3800 N   0  0  0  0  0  0  0  0  0  0  0  0
    2.2300   30.6870    7.0460 N   0  0  0  0  0  0  0  0  0  0  0  0
    2.7500   29.7330    7.8740 C   0  0  0  0  0  0  0  0  0  0  0  0
    3.9990   29.2570    7.7440 N   0  0  0  0  0  0  0  0  0  0  0  0
    1.8550   29.4020    8.7660 N   0  0  0  0  0  0  0  0  0  0  0  0
   -0.3730   27.9810   12.7490 N   0  0  0  0  0  0  0  0  0  0  0  0
   -1.2710   26.9890   13.2700 C   0  0  2  0  0  0  0  0  0  0  0  0
   -0.7700   26.3190   14.8830 S   0  0  0  0  0  0  0  0  0  0  0  0
   -0.8409   23.8504   16.2416 H   0  0  0  0  0  0  0  0  0  0  0  0
   -1.6003   22.7876   15.0085 H   0  0  0  0  0  0  0  0  0  0  0  0
    0.1790   23.0344   15.0085 H   0  0  0  0  0  0  0  0  0  0  0  0
   -1.3264   23.6957   12.4221 H   0  0  0  0  0  0  0  0  0  0  0  0
   -1.2325   27.7485    9.4949 H   0  0  0  0  0  0  0  0  0  0  0  0
   -0.5741   30.4724   11.6919 H   0  0  0  0  0  0  0  0  0  0  0  0
    0.9608   29.8129   11.0036 H   0  0  0  0  0  0  0  0  0  0  0  0
    2.6760   31.1630    6.2730 H   0  0  0  0  0  0  0  0  0  0  0  0
    4.6790   29.9340    7.4040 H   0  0  0  0  0  0  0  0  0  0  0  0
    4.3940   28.6400    8.4450 H   0  0  0  0  0  0  0  0  0  0  0  0
   -0.3070   28.7960   13.3730 H   0  0  0  0  0  0  0  0  0  0  0  0
   -2.2491   27.4788   13.3862 H   0  0  0  0  0  0  0  0  0  0  0  0
  1  2  1  0
  2  3  2  0
  3  4  1  0
  4  5  1  0
  5  6  2  0
  5  7  1  0
  7  8  2  0
  8  9  1  0
  9 10  1  0
 10 11  1  0
 11 12  2  0
 12 13  1  0
 13 14  1  0
 14 15  1  0
 14 16  2  0
  8 17  1  0
 17 18  1  0
 18 19  1  0
 19  2  1  0
 18  4  1  0
 16 11  1  0
  1 20  1  0
  1 21  1  0
  1 22  1  0
  3 23  1  0
  7 24  1  0
  9 25  1  0
  9 26  1  0
 13 27  1  0
 15 28  1  0
 15 29  1  0
 17 30  1  0
 18 31  1  1
M  END
>  <vina_affinity>  (1) 
-6.787

$$$$
dec_C61881488
     RDKit          3D

 43 43  0  0  0  0  0  0  0  0999 V2000
    4.1240   27.3710    4.5500 C   0  0  0  0  0  0  0  0  0  0  0  0
    4.4710   28.0990    5.8360 C   0  0  0  0  0  0  0  0  0  0  0  0
    4.5730   27.1100    6.9890 N   0  0  0  0  0  0  0  0  0  0  0  0
    5.6210   26.0390    6.7120 C   0  0  0  0  0  0  0  0  0  0  0  0
    6.6420   26.0020    7.8360 C   0  0  0  0  0  0  0  0  0  0  0  0
    4.8510   27.8180    8.3140 C   0  0  0  0  0  0  0  0  0  0  0  0
    3.5440   28.2840    8.9610 C   0  0  0  0  0  0  0  0  0  0  0  0
    2.8370   27.1560    9.7170 C   0  0  0  0  0  0  0  0  0  0  0  0
    2.0220   27.7010   10.7950 N   0  0  0  0  0  0  0  0  0  0  0  0
    0.3780   27.3750   10.9120 S   0  0  0  0  0  0  0  0  0  0  0  0
    0.1900   26.2120   10.0690 O   0  0  0  0  0  0  0  0  0  0  0  0
    0.1020   27.3680   12.3270 O   0  0  0  0  0  0  0  0  0  0  0  0
   -0.4470   28.7590   10.1900 C   0  0  0  0  0  0  0  0  0  0  0  0
    0.2860   29.6480    9.3920 C   0  0  0  0  0  0  0  0  0  0  0  0
   -0.3510   30.7390    8.8120 C   0  0  0  0  0  0  0  0  0  0  0  0
    0.5580   31.8310    7.8430 Cl  0  0  0  0  0  0  0  0  0  0  0  0
   -1.7090   30.9580    9.0160 C   0  0  0  0  0  0  0  0  0  0  0  0
   -2.4650   30.0680    9.7900 C   0  0  0  0  0  0  0  0  0  0  0  0
   -3.7940   30.4130   10.0860 N   0  0  0  0  0  0  0  0  0  0  0  0
   -1.8140   28.9820   10.4200 C   0  0  0  0  0  0  0  0  0  0  0  0
   -2.8540   27.8760   11.5830 Br  0  0  0  0  0  0  0  0  0  0  0  0
    3.6621   26.4020    4.7904 H   0  0  0  0  0  0  0  0  0  0  0  0
    3.4184   27.9782    3.9639 H   0  0  0  0  0  0  0  0  0  0  0  0
    5.0400   27.2053    3.9639 H   0  0  0  0  0  0  0  0  0  0  0  0
    5.4350   28.6144    5.7130 H   0  0  0  0  0  0  0  0  0  0  0  0
    3.6800   28.8301    6.0592 H   0  0  0  0  0  0  0  0  0  0  0  0
    3.6650   26.6350    7.0700 H   0  0  0  0  0  0  0  0  0  0  0  0
    5.1277   25.0587    6.6366 H   0  0  0  0  0  0  0  0  0  0  0  0
    6.1343   26.2744    5.7680 H   0  0  0  0  0  0  0  0  0  0  0  0
    6.1215   26.0209    8.8049 H   0  0  0  0  0  0  0  0  0  0  0  0
    7.2394   25.0816    7.7585 H   0  0  0  0  0  0  0  0  0  0  0  0
    7.3045   26.8767    7.7585 H   0  0  0  0  0  0  0  0  0  0  0  0
    5.3635   27.1225    8.9949 H   0  0  0  0  0  0  0  0  0  0  0  0
    5.4837   28.6968    8.1204 H   0  0  0  0  0  0  0  0  0  0  0  0
    3.7688   29.0969    9.6672 H   0  0  0  0  0  0  0  0  0  0  0  0
    2.8731   28.6241    8.1584 H   0  0  0  0  0  0  0  0  0  0  0  0
    2.1921   26.6009    9.0199 H   0  0  0  0  0  0  0  0  0  0  0  0
    3.5947   26.4843   10.1467 H   0  0  0  0  0  0  0  0  0  0  0  0
    2.4020   28.3370   11.4990 H   0  0  0  0  0  0  0  0  0  0  0  0
    1.3607   29.4831    9.2254 H   0  0  0  0  0  0  0  0  0  0  0  0
   -2.1935   31.8371    8.5660 H   0  0  0  0  0  0  0  0  0  0  0  0
   -4.1240   31.2600    9.6270 H   0  0  0  0  0  0  0  0  0  0  0  0
   -4.0580   30.3660   11.0660 H   0  0  0  0  0  0  0  0  0  0  0  0
  1  2  1  0
  2  3  1  0
  3  4  1  0
  4  5  1  0
  3  6  1  0
  6  7  1  0
  7  8  1  0
  8  9  1  0
  9 10  1  0
 10 11  2  0
 10 12  2  0
 10 13  1  0
 13 14  2  0
 14 15  1  0
 15 16  1  0
 15 17  2  0
 17 18  1  0
 18 19  1  0
 18 20  2  0
 20 21  1  0
 20 13  1  0
  1 22  1  0
  1 23  1  0
  1 24  1  0
  2 25  1  0
  2 26  1  0
  3 27  1  0
  4 28  1  0
  4 29  1  0
  5 30  1  0
  5 31  1  0
  5 32  1  0
  6 33  1  0
  6 34  1  0
  7 35  1  0
  7 36  1  0
  8 37  1  0
  8 38  1  0
  9 39  1  0
 14 40  1  0
 17 41  1  0
 19 42  1  0
 19 43  1  0
M  CHG  1   3   1
M  END
>  <vina_affinity>  (1) 
-6.306

$$$$
dec_C10249041
     RDKit          3D

 59 62  0  0  0  0  0  0  0  0999 V2000
   -2.2750   19.5680   16.0860 C   0  0  0  0  0  0  0  0  0  0  0  0
   -0.8460   19.3110   15.6450 C   0  0  0  0  0  0  0  0  0  0  0  0
   -0.4550   20.2320   14.5340 N   0  0  0  0  0  0  0  0  0  0  0  0
    1.0020   20.6740   14.6140 C   0  0  0  0  0  0  0  0  0  0  0  0
    1.4140   21.5150   13.3790 C   0  0  0  0  0  0  0  0  0  0  0  0
    0.2520   22.0160   12.6040 N   0  0  0  0  0  0  0  0  0  0  0  0
   -0.4530   23.0010   13.2260 C   0  0  0  0  0  0  0  0  0  0  0  0
   -1.5220   22.8290   13.9810 N   0  0  0  0  0  0  0  0  0  0  0  0
   -1.8570   24.0940   14.3770 C   0  0  0  0  0  0  0  0  0  0  0  0
   -1.0060   25.0320   13.8670 C   0  0  0  0  0  0  0  0  0  0  0  0
   -1.1410   26.4210   14.1410 C   0  0  0  0  0  0  0  0  0  0  0  0
   -0.3950   27.2950   13.7230 O   0  0  0  0  0  0  0  0  0  0  0  0
   -2.2210   26.6930   14.9500 N   0  0  0  0  0  0  0  0  0  0  0  0
   -3.1170   25.7880   15.4860 C   0  0  0  0  0  0  0  0  0  0  0  0
   -4.0410   26.2000   16.1850 O   0  0  0  0  0  0  0  0  0  0  0  0
   -2.9120   24.4390   15.1940 N   0  0  0  0  0  0  0  0  0  0  0  0
   -3.8270   23.4420   15.7110 C   0  0  0  0  0  0  0  0  0  0  0  0
   -0.1050   24.3310   13.1140 N   0  0  0  0  0  0  0  0  0  0  0  0
    0.9840   24.8810   12.3240 C   0  0  0  0  0  0  0  0  0  0  0  0
    0.6060   25.0370   10.8510 C   0  0  0  0  0  0  0  0  0  0  0  0
    0.4050   26.4920   10.4240 C   0  0  0  0  0  0  0  0  0  0  0  0
   -1.3580   26.9400   10.3000 S   0  0  0  0  0  0  0  0  0  0  0  0
   -1.2130   28.6800    9.9400 C   0  0  0  0  0  0  0  0  0  0  0  0
   -0.0990   29.1370    9.2280 C   0  0  0  0  0  0  0  0  0  0  0  0
    0.0400   30.4950    8.9260 C   0  0  0  0  0  0  0  0  0  0  0  0
   -0.9430   31.3970    9.3280 C   0  0  0  0  0  0  0  0  0  0  0  0
   -0.7710   33.0680    8.9610 Cl  0  0  0  0  0  0  0  0  0  0  0  0
   -2.0650   30.9510   10.0210 C   0  0  0  0  0  0  0  0  0  0  0  0
   -2.2030   29.5930   10.3230 C   0  0  0  0  0  0  0  0  0  0  0  0
   -0.5920   20.9000   12.0950 C   0  0  0  0  0  0  0  0  0  0  0  0
   -0.8080   19.7670   13.1350 C   0  0  0  0  0  0  0  0  0  0  0  0
   -2.3237   19.5768   17.1849 H   0  0  0  0  0  0  0  0  0  0  0  0
   -2.6096   20.5407   15.6964 H   0  0  0  0  0  0  0  0  0  0  0  0
   -2.9276   18.7728   15.6964 H   0  0  0  0  0  0  0  0  0  0  0  0
   -0.1715   19.4708   16.4991 H   0  0  0  0  0  0  0  0  0  0  0  0
   -0.7713   18.2746   15.2841 H   0  0  0  0  0  0  0  0  0  0  0  0
   -0.9700   21.1330   14.6500 H   0  0  0  0  0  0  0  0  0  0  0  0
    1.1413   21.2805   15.5210 H   0  0  0  0  0  0  0  0  0  0  0  0
    1.6328   19.7733   14.6417 H   0  0  0  0  0  0  0  0  0  0  0  0
    2.0037   22.3774   13.7233 H   0  0  0  0  0  0  0  0  0  0  0  0
    1.9948   20.8592   12.7137 H   0  0  0  0  0  0  0  0  0  0  0  0
   -2.3810   27.6630   15.1790 H   0  0  0  0  0  0  0  0  0  0  0  0
   -3.8083   23.4623   16.8107 H   0  0  0  0  0  0  0  0  0  0  0  0
   -4.8454   23.6606   15.3575 H   0  0  0  0  0  0  0  0  0  0  0  0
   -3.5220   22.4460   15.3575 H   0  0  0  0  0  0  0  0  0  0  0  0
    1.2512   25.8687   12.7279 H   0  0  0  0  0  0  0  0  0  0  0  0
    1.8314   24.1821   12.3835 H   0  0  0  0  0  0  0  0  0  0  0  0
    1.4086   24.6017   10.2375 H   0  0  0  0  0  0  0  0  0  0  0  0
   -0.3550   24.5216   10.7070 H   0  0  0  0  0  0  0  0  0  0  0  0
    0.8852   27.1477   11.1653 H   0  0  0  0  0  0  0  0  0  0  0  0
    0.8542   26.6152    9.4275 H   0  0  0  0  0  0  0  0  0  0  0  0
    0.6726   28.4233    8.9036 H   0  0  0  0  0  0  0  0  0  0  0  0
    0.9222   30.8501    8.3731 H   0  0  0  0  0  0  0  0  0  0  0  0
   -2.8416   31.6659   10.3304 H   0  0  0  0  0  0  0  0  0  0  0  0
   -3.0934   29.2402   10.8640 H   0  0  0  0  0  0  0  0  0  0  0  0
   -1.5745   21.3064   11.8128 H   0  0  0  0  0  0  0  0  0  0  0  0
   -0.0635   20.4577   11.2376 H   0  0  0  0  0  0  0  0  0  0  0  0
   -1.8636   19.4583   13.1152 H   0  0  0  0  0  0  0  0  0  0  0  0
   -0.1522   18.9238   12.8725 H   0  0  0  0  0  0  0  0  0  0  0  0
  1  2  1  0
  2  3  1  0
  3  4  1  0
  4  5  1  0
  5  6  1  0
  6  7  1  0
  7  8  2  0
  8  9  1  0
  9 10  2  0
 10 11  1  0
 11 12  2  0
 11 13  1  0
 13 14  1  0
 14 15  2  0
 14 16  1  0
 16 17  1  0
 10 18  1  0
 18 19  1  0
 19 20  1  0
 20 21  1  0
 21 22  1  0
 22 23  1  0
 23 24  2  0
 24 25  1  0
 25 26  2  0
 26 27  1  0
 26 28  1  0
 28 29  2  0
  6 30  1  0
 30 31  1  0
 31  3  1  0
 18  7  1  0
 29 23  1  0
 16  9  1  0
  1 32  1  0
  1 33  1  0
  1 34  1  0
  2 35  1  0
  2 36  1  0
  3 37  1  0
  4 38  1  0
  4 39  1  0
  5 40  1  0
  5 41  1  0
 13 42  1  0
 17 43  1  0
 17 44  1  0
 17 45  1  0
 19 46  1  0
 19 47  1  0
 20 48  1  0
 20 49  1  0
 21 50  1  0
 21 51  1  0
 24 52  1  0
 25 53  1  0
 28 54  1  0
 29 55  1  0
 30 56  1  0
 30 57  1  0
 31 58  1  0
 31 59  1  0
M  CHG  1   3   1
M  END
>  <vina_affinity>  (1) 
-7.767

$$$$
dec_C36322030
     RDKit          3D

 37 38  0  0  0  0  0  0  0  0999 V2000
    0.7190   29.5050   12.0660 C   0  0  0  0  0  0  0  0  0  0  0  0
    0.4920   28.7220   10.8500 N   0  0  0  0  0  0  0  0  0  0  0  0
    1.1050   29.1670    9.6630 C   0  0  0  0  0  0  0  0  0  0  0  0
    2.3650   28.6050    9.3610 C   0  0  0  0  0  0  0  0  0  0  0  0
    3.0570   28.9430    8.1980 C   0  0  0  0  0  0  0  0  0  0  0  0
    4.7380   28.1530    7.8420 Br  0  0  0  0  0  0  0  0  0  0  0  0
    2.5190   29.8530    7.3010 C   0  0  0  0  0  0  0  0  0  0  0  0
    1.2810   30.4300    7.5780 C   0  0  0  0  0  0  0  0  0  0  0  0
    0.5610   30.0990    8.7450 C   0  0  0  0  0  0  0  0  0  0  0  0
   -0.6880   30.8340    8.9900 C   0  0  0  0  0  0  0  0  0  0  0  0
   -1.8490   30.2560    9.3370 C   0  0  0  0  0  0  0  0  0  0  0  0
   -3.1120   31.0720    9.6080 C   0  0  0  0  0  0  0  0  0  0  0  0
   -4.1450   30.7440    8.9610 O   0  0  0  0  0  0  0  0  0  0  0  0
   -2.9490   31.9940   10.4590 O   0  0  0  0  0  0  0  0  0  0  0  0
    0.3100   27.2600   10.9500 C   0  0  0  0  0  0  0  0  0  0  0  0
   -0.0200   26.7760   12.3650 C   0  0  0  0  0  0  0  0  0  0  0  0
   -0.2410   25.2700   12.3530 C   0  0  0  0  0  0  0  0  0  0  0  0
   -1.2640   24.9050   11.4240 O   0  0  0  0  0  0  0  0  0  0  0  0
   -0.9440   25.2830   10.0860 C   0  0  0  0  0  0  0  0  0  0  0  0
   -0.7700   26.7900    9.9710 C   0  0  0  0  0  0  0  0  0  0  0  0
    0.5360   28.8738   12.9481 H   0  0  0  0  0  0  0  0  0  0  0  0
    1.7584   29.8647   12.0818 H   0  0  0  0  0  0  0  0  0  0  0  0
    0.0332   30.3649   12.0818 H   0  0  0  0  0  0  0  0  0  0  0  0
    2.8117   27.8828   10.0602 H   0  0  0  0  0  0  0  0  0  0  0  0
    3.0627   30.1164    6.3818 H   0  0  0  0  0  0  0  0  0  0  0  0
    0.8564   31.1588    6.8718 H   0  0  0  0  0  0  0  0  0  0  0  0
   -0.6704   31.9285    8.8821 H   0  0  0  0  0  0  0  0  0  0  0  0
   -1.8923   29.1607    9.4291 H   0  0  0  0  0  0  0  0  0  0  0  0
    1.2800   26.8134   10.6860 H   0  0  0  0  0  0  0  0  0  0  0  0
    0.8155   27.0177   13.0384 H   0  0  0  0  0  0  0  0  0  0  0  0
   -0.9344   27.2758   12.7172 H   0  0  0  0  0  0  0  0  0  0  0  0
    0.6973   24.7720   12.0674 H   0  0  0  0  0  0  0  0  0  0  0  0
   -0.5561   24.9562   13.3591 H   0  0  0  0  0  0  0  0  0  0  0  0
   -0.0077   24.7891    9.7870 H   0  0  0  0  0  0  0  0  0  0  0  0
   -1.7700   24.9748    9.4281 H   0  0  0  0  0  0  0  0  0  0  0  0
   -0.4697   27.0463    8.9443 H   0  0  0  0  0  0  0  0  0  0  0  0
   -1.7216   27.2865   10.2118 H   0  0  0  0  0  0  0  0  0  0  0  0
  1  2  1  0
  2  3  1  0
  3  4  2  0
  4  5  1  0
  5  6  1  0
  5  7  2  0
  7  8  1  0
  8  9  2  0
  9 10  1  0
 10 11  2  0
 11 12  1  0
 12 13  2  0
 12 14  1  0
  2 15  1  0
 15 16  1  0
 16 17  1  0
 17 18  1  0
 18 19  1  0
 19 20  1  0
  9  3  1  0
 20 15  1  0
  1 21  1  0
  1 22  1  0
  1 23  1  0
  4 24  1  0
  7 25  1  0
  8 26  1  0
 10 27  1  0
 11 28  1  0
 15 29  1  0
 16 30  1  0
 16 31  1  0
 17 32  1  0
 17 33  1  0
 19 34  1  0
 19 35  1  0
 20 36  1  0
 20 37  1  0
M  CHG  1  14  -1
M  END
>  <vina_affinity>  (1) 
-7.039

$$$$
dec_C64042681
     RDKit          3D

 63 66  0  0  0  0  0  0  0  0999 V2000
    5.8610   24.3680    7.4900 C   0  0  0  0  0  0  0  0  0  0  0  0
    4.4980   24.9700    7.7000 C   0  0  0  0  0  0  0  0  0  0  0  0
    3.8930   25.5640    6.8120 O   0  0  0  0  0  0  0  0  0  0  0  0
    3.9810   24.7990    8.9610 N   0  0  0  0  0  0  0  0  0  0  0  0
    2.8300   25.5650    9.4620 C   0  0  2  0  0  0  0  0  0  0  0  0
    3.1030   26.9440   10.0930 C   0  0  0  0  0  0  0  0  0  0  0  0
    3.1750   28.0850    9.1200 C   0  0  0  0  0  0  0  0  0  0  0  0
    2.1730   28.8630    8.6860 C   0  0  0  0  0  0  0  0  0  0  0  0
    0.7600   28.9010    8.8950 C   0  0  0  0  0  0  0  0  0  0  0  0
    0.0500   29.8660    8.2870 C   0  0  0  0  0  0  0  0  0  0  0  0
    0.6790   30.8640    7.4310 C   0  0  0  0  0  0  0  0  0  0  0  0
    2.0020   30.9040    7.1910 C   0  0  0  0  0  0  0  0  0  0  0  0
    2.8310   29.8740    7.8350 C   0  0  0  0  0  0  0  0  0  0  0  0
    4.0950   29.7180    7.7720 N   0  0  0  0  0  0  0  0  0  0  0  0
    4.5010   28.5500    8.5720 C   0  0  0  0  0  0  0  0  0  0  0  0
    2.0250   24.6550   10.4100 C   0  0  0  0  0  0  0  0  0  0  0  0
    2.5840   23.9880   11.2770 O   0  0  0  0  0  0  0  0  0  0  0  0
    0.6570   24.7240   10.2740 N   0  0  0  0  0  0  0  0  0  0  0  0
   -0.2500   24.0810   11.2120 C   0  0  0  0  0  0  0  0  0  0  0  0
   -0.9130   25.0710   12.1840 C   0  0  2  0  0  0  0  0  0  0  0  0
   -0.7000   26.5430   11.7690 C   0  0  0  0  0  0  0  0  0  0  0  0
   -1.4610   27.4670   12.6420 N   0  0  0  0  0  0  0  0  0  0  0  0
   -0.8880   28.8220   12.5650 C   0  0  0  0  0  0  0  0  0  0  0  0
   -1.5810   29.7150   11.5560 C   0  0  0  0  0  0  0  0  0  0  0  0
   -1.1630   31.0400   11.3570 C   0  0  0  0  0  0  0  0  0  0  0  0
   -1.8230   31.8640   10.4440 C   0  0  0  0  0  0  0  0  0  0  0  0
   -2.9140   31.3770    9.7270 C   0  0  0  0  0  0  0  0  0  0  0  0
   -3.3470   30.0680    9.9230 C   0  0  0  0  0  0  0  0  0  0  0  0
   -2.6870   29.2410   10.8350 C   0  0  0  0  0  0  0  0  0  0  0  0
   -1.5220   26.9510   14.0280 C   0  0  0  0  0  0  0  0  0  0  0  0
   -0.4010   25.9550   14.3610 C   0  0  0  0  0  0  0  0  0  0  0  0
   -0.3890   24.8070   13.5000 O   0  0  0  0  0  0  0  0  0  0  0  0
    6.3255   24.1628    8.4658 H   0  0  0  0  0  0  0  0  0  0  0  0
    5.7641   23.4290    6.9254 H   0  0  0  0  0  0  0  0  0  0  0  0
    6.4898   25.0721    6.9254 H   0  0  0  0  0  0  0  0  0  0  0  0
    4.6570   24.5550    9.6800 H   0  0  0  0  0  0  0  0  0  0  0  0
    2.2573   25.8484    8.5666 H   0  0  0  0  0  0  0  0  0  0  0  0
    2.2959   27.1571   10.8093 H   0  0  0  0  0  0  0  0  0  0  0  0
    4.0963   26.8763   10.5608 H   0  0  0  0  0  0  0  0  0  0  0  0
    0.2655   28.1581    9.5381 H   0  0  0  0  0  0  0  0  0  0  0  0
   -1.0387   29.9040    8.4398 H   0  0  0  0  0  0  0  0  0  0  0  0
    0.0393   31.6231    6.9571 H   0  0  0  0  0  0  0  0  0  0  0  0
    2.4445   31.6735    6.5414 H   0  0  0  0  0  0  0  0  0  0  0  0
    4.7020   30.3330    7.2350 H   0  0  0  0  0  0  0  0  0  0  0  0
    4.9700   27.7772    7.9453 H   0  0  0  0  0  0  0  0  0  0  0  0
    5.2515   28.7744    9.3443 H   0  0  0  0  0  0  0  0  0  0  0  0
    0.2610   25.4460    9.6730 H   0  0  0  0  0  0  0  0  0  0  0  0
   -1.0388   23.5690   10.6414 H   0  0  0  0  0  0  0  0  0  0  0  0
    0.3445   23.3781   11.8141 H   0  0  0  0  0  0  0  0  0  0  0  0
   -2.0030   24.9235   12.1694 H   0  0  0  0  0  0  0  0  0  0  0  0
    0.3710   26.7836   11.8408 H   0  0  0  0  0  0  0  0  0  0  0  0
   -1.0600   26.6670   10.7370 H   0  0  0  0  0  0  0  0  0  0  0  0
   -0.9675   29.2905   13.5571 H   0  0  0  0  0  0  0  0  0  0  0  0
    0.1564   28.7134   12.2373 H   0  0  0  0  0  0  0  0  0  0  0  0
   -0.3073   31.4327   11.9259 H   0  0  0  0  0  0  0  0  0  0  0  0
   -1.4817   32.8984   10.2904 H   0  0  0  0  0  0  0  0  0  0  0  0
   -3.4330   32.0262    9.0065 H   0  0  0  0  0  0  0  0  0  0  0  0
   -4.2100   29.6847    9.3588 H   0  0  0  0  0  0  0  0  0  0  0  0
   -3.0374   28.2097   10.9890 H   0  0  0  0  0  0  0  0  0  0  0  0
   -1.4479   27.8027   14.7202 H   0  0  0  0  0  0  0  0  0  0  0  0
   -2.4751   26.4115   14.1307 H   0  0  0  0  0  0  0  0  0  0  0  0
    0.5652   26.4723   14.2671 H   0  0  0  0  0  0  0  0  0  0  0  0
   -0.5791   25.5935   15.3845 H   0  0  0  0  0  0  0  0  0  0  0  0
  1  2  1  0
  2  3  2  0
  2  4  1  0
  4  5  1  0
  5  6  1  0
  6  7  1  0
  7  8  2  0
  8  9  1  0
  9 10  2  0
 10 11  1  0
 11 12  2  0
 12 13  1  0
 13 14  2  0
 14 15  1  0
  5 16  1  0
 16 17  2  0
 16 18  1  0
 18 19  1  0
 19 20  1  0
 20 21  1  0
 21 22  1  0
 22 23  1  0
 23 24  1  0
 24 25  2  0
 25 26  1  0
 26 27  2  0
 27 28  1  0
 28 29  2  0
 22 30  1  0
 30 31  1  0
 31 32  1  0
 15  7  1  0
 32 20  1  0
 13  8  1  0
 29 24  1  0
  1 33  1  0
  1 34  1  0
  1 35  1  0
  4 36  1  0
  5 37  1  6
  6 38  1  0
  6 39  1  0
  9 40  1  0
 10 41  1  0
 11 42  1  0
 12 43  1  0
 14 44  1  0
 15 45  1  0
 15 46  1  0
 18 47  1  0
 19 48  1  0
 19 49  1  0
 20 50  1  1
 21 51  1  0
 21 52  1  0
 23 53  1  0
 23 54  1  0
 25 55  1  0
 26 56  1  0
 27 57  1  0
 28 58  1  0
 29 59  1  0
 30 60  1  0
 30 61  1  0
 31 62  1  0
 31 63  1  0
M  CHG  1  14   1
M  END
>  <vina_affinity>  (1) 
-8.381

$$$$
dec_C53958531
     RDKit          3D

 48 49  0  0  0  0  0  0  0  0999 V2000
   -0.6140   32.8800    8.9580 C   0  0  0  0  0  0  0  0  0  0  0  0
   -1.3110   32.0080   10.0060 C   0  0  0  0  0  0  0  0  0  0  0  0
   -2.2700   32.8650   10.8370 C   0  0  0  0  0  0  0  0  0  0  0  0
   -1.9890   30.7690    9.3580 C   0  0  2  0  0  0  0  0  0  0  0  0
   -3.5170   30.8160    9.3670 C   0  0  0  0  0  0  0  0  0  0  0  0
   -1.5490   29.5250    9.9890 N   0  0  0  0  0  0  0  0  0  0  0  0
   -0.3500   28.9460    9.6570 C   0  0  0  0  0  0  0  0  0  0  0  0
    0.4020   29.4190    8.8100 O   0  0  0  0  0  0  0  0  0  0  0  0
   -0.0580   27.7870   10.3690 N   0  0  0  0  0  0  0  0  0  0  0  0
    1.2030   27.1230   10.0290 C   0  0  0  0  0  0  0  0  0  0  0  0
    1.6980   26.2000   11.1460 C   0  0  0  0  0  0  0  0  0  0  0  0
    0.6560   25.2940   11.6450 N   0  0  0  0  0  0  0  0  0  0  0  0
    1.0740   24.0740   12.1820 C   0  0  0  0  0  0  0  0  0  0  0  0
    2.2510   23.7140   12.1100 O   0  0  0  0  0  0  0  0  0  0  0  0
    0.0170   23.1900   12.8870 C   0  0  2  0  0  0  0  0  0  0  0  0
    0.6870   22.1770   13.8140 C   0  0  0  0  0  0  0  0  0  0  0  0
   -0.0140   20.8760   13.5010 C   0  0  0  0  0  0  0  0  0  0  0  0
   -0.3870   21.0600   12.0520 C   0  0  0  0  0  0  0  0  0  0  0  0
   -0.7710   22.4330   11.9490 O   0  0  0  0  0  0  0  0  0  0  0  0
   -0.6240   25.9390   11.9500 C   0  0  0  0  0  0  0  0  0  0  0  0
   -1.1070   26.8710   10.8290 C   0  0  0  0  0  0  0  0  0  0  0  0
   -0.0039   33.6433    9.4632 H   0  0  0  0  0  0  0  0  0  0  0  0
    0.0329   32.2508    8.3290 H   0  0  0  0  0  0  0  0  0  0  0  0
   -1.3703   33.3724    8.3290 H   0  0  0  0  0  0  0  0  0  0  0  0
   -0.5599   31.5976   10.6970 H   0  0  0  0  0  0  0  0  0  0  0  0
   -2.0800   32.6952   11.9071 H   0  0  0  0  0  0  0  0  0  0  0  0
   -2.1110   33.9274   10.6004 H   0  0  0  0  0  0  0  0  0  0  0  0
   -3.3079   32.5880   10.6004 H   0  0  0  0  0  0  0  0  0  0  0  0
   -1.6662   30.7966    8.3068 H   0  0  0  0  0  0  0  0  0  0  0  0
   -3.8774   30.8271   10.4062 H   0  0  0  0  0  0  0  0  0  0  0  0
   -3.8589   31.7251    8.8506 H   0  0  0  0  0  0  0  0  0  0  0  0
   -3.9142   29.9296    8.8506 H   0  0  0  0  0  0  0  0  0  0  0  0
   -1.7920   29.4210   10.9620 H   0  0  0  0  0  0  0  0  0  0  0  0
    1.0528   26.5253    9.1178 H   0  0  0  0  0  0  0  0  0  0  0  0
    1.9628   27.9041    9.8788 H   0  0  0  0  0  0  0  0  0  0  0  0
    2.5315   25.5959   10.7581 H   0  0  0  0  0  0  0  0  0  0  0  0
    2.0096   26.8379   11.9863 H   0  0  0  0  0  0  0  0  0  0  0  0
   -0.6273   23.8829   13.4481 H   0  0  0  0  0  0  0  0  0  0  0  0
    1.7633   22.1027   13.5994 H   0  0  0  0  0  0  0  0  0  0  0  0
    0.6072   22.4564   14.8749 H   0  0  0  0  0  0  0  0  0  0  0  0
    0.6601   20.0170   13.6340 H   0  0  0  0  0  0  0  0  0  0  0  0
   -0.8724   20.6666   14.1562 H   0  0  0  0  0  0  0  0  0  0  0  0
    0.4730   20.8475   11.3998 H   0  0  0  0  0  0  0  0  0  0  0  0
   -1.1911   20.3778   11.7388 H   0  0  0  0  0  0  0  0  0  0  0  0
   -1.3819   25.1575   12.1073 H   0  0  0  0  0  0  0  0  0  0  0  0
   -0.4768   26.5544   12.8498 H   0  0  0  0  0  0  0  0  0  0  0  0
   -1.4375   26.2574    9.9780 H   0  0  0  0  0  0  0  0  0  0  0  0
   -1.9295   27.4802   11.2320 H   0  0  0  0  0  0  0  0  0  0  0  0
  1  2  1  0
  2  3  1  0
  2  4  1  0
  4  5  1  0
  4  6  1  0
  6  7  1  0
  7  8  2  0
  7  9  1  0
  9 10  1  0
 10 11  1  0
 11 12  1  0
 12 13  1  0
 13 14  2  0
 13 15  1  0
 15 16  1  0
 16 17  1  0
 17 18  1  0
 18 19  1  0
 12 20  1  0
 20 21  1  0
 21  9  1  0
 19 15  1  0
  1 22  1  0
  1 23  1  0
  1 24  1  0
  2 25  1  0
  3 26  1  0
  3 27  1  0
  3 28  1  0
  4 29  1  6
  5 30  1  0
  5 31  1  0
  5 32  1  0
  6 33  1  0
 10 34  1  0
 10 35  1  0
 11 36  1  0
 11 37  1  0
 15 38  1  1
 16 39  1  0
 16 40  1  0
 17 41  1  0
 17 42  1  0
 18 43  1  0
 18 44  1  0
 20 45  1  0
 20 46  1  0
 21 47  1  0
 21 48  1  0
M  END
>  <vina_affinity>  (1) 
-7.355

$$$$
dec_C00717426
     RDKit          3D

 49 53  0  0  0  0  0  0  0  0999 V2000
    4.4800   28.1880    8.5860 C   0  0  0  0  0  0  0  0  0  0  0  0
    4.8550   28.6220    7.2780 O   0  0  0  0  0  0  0  0  0  0  0  0
    4.4240   27.8030    6.2810 C   0  0  0  0  0  0  0  0  0  0  0  0
    3.9520   28.1960    5.2190 O   0  0  0  0  0  0  0  0  0  0  0  0
    4.6360   26.3270    6.5900 C   0  0  0  0  0  0  0  0  0  0  0  0
    5.5300   25.5770    5.7260 N   0  0  0  0  0  0  0  0  0  0  0  0
    5.1370   25.0010    4.5190 C   0  0  0  0  0  0  0  0  0  0  0  0
    4.0040   24.9520    4.0650 O   0  0  0  0  0  0  0  0  0  0  0  0
    6.4170   24.4680    3.8200 C   0  0  2  0  0  0  0  0  0  0  0  0
    6.6660   25.3770    2.6090 C   0  0  0  0  0  0  0  0  0  0  0  0
    6.4150   26.7800    2.7230 C   0  0  0  0  0  0  0  0  0  0  0  0
    6.2350   27.9200    2.8370 N   0  0  0  0  0  0  0  0  0  0  0  0
    7.0970   24.8650    1.4340 C   0  0  0  0  0  0  0  0  0  0  0  0
    7.3090   25.5670    0.2750 N   0  0  0  0  0  0  0  0  0  0  0  0
    7.4560   23.5060    1.3070 O   0  0  0  0  0  0  0  0  0  0  0  0
    7.2150   22.7210    2.3640 C   0  0  0  0  0  0  0  0  0  0  0  0
    7.8960   21.6570    2.6410 N   0  0  0  0  0  0  0  0  0  0  0  0
    7.3920   21.1400    3.8680 N   0  0  0  0  0  0  0  0  0  0  0  0
    6.4010   21.8890    4.2560 C   0  0  0  0  0  0  0  0  0  0  0  0
    5.5790   21.5780    5.4400 C   0  0  0  0  0  0  0  0  0  0  0  0
    6.1010   21.6710    6.7340 C   0  0  0  0  0  0  0  0  0  0  0  0
    5.2690   21.4510    7.8360 C   0  0  0  0  0  0  0  0  0  0  0  0
    3.9220   21.1490    7.6440 C   0  0  0  0  0  0  0  0  0  0  0  0
    2.9020   20.8880    9.0040 Cl  0  0  0  0  0  0  0  0  0  0  0  0
    3.3970   21.0560    6.3570 C   0  0  0  0  0  0  0  0  0  0  0  0
    4.2240   21.2740    5.2540 C   0  0  0  0  0  0  0  0  0  0  0  0
    6.1480   23.0520    3.3340 C   0  0  1  0  0  0  0  0  0  0  0  0
    7.4610   24.6760    4.8950 C   0  0  0  0  0  0  0  0  0  0  0  0
    8.8040   24.3310    4.9100 C   0  0  0  0  0  0  0  0  0  0  0  0
    9.5690   24.6970    6.0200 C   0  0  0  0  0  0  0  0  0  0  0  0
    8.9950   25.4060    7.0860 C   0  0  0  0  0  0  0  0  0  0  0  0
    7.6420   25.7540    7.0660 C   0  0  0  0  0  0  0  0  0  0  0  0
    6.8940   25.3720    5.9680 C   0  0  0  0  0  0  0  0  0  0  0  0
    5.0047   28.7953    9.3383 H   0  0  0  0  0  0  0  0  0  0  0  0
    3.3936   28.3045    8.7136 H   0  0  0  0  0  0  0  0  0  0  0  0
    4.7528   27.1300    8.7136 H   0  0  0  0  0  0  0  0  0  0  0  0
    5.0350   26.2598    7.6129 H   0  0  0  0  0  0  0  0  0  0  0  0
    3.6491   25.8665    6.4349 H   0  0  0  0  0  0  0  0  0  0  0  0
    7.0850   25.0890   -0.5950 H   0  0  0  0  0  0  0  0  0  0  0  0
    6.9330   26.5130    0.3160 H   0  0  0  0  0  0  0  0  0  0  0  0
    7.1627   21.9164    6.8844 H   0  0  0  0  0  0  0  0  0  0  0  0
    5.6778   21.5163    8.8551 H   0  0  0  0  0  0  0  0  0  0  0  0
    2.3345   20.8116    6.2106 H   0  0  0  0  0  0  0  0  0  0  0  0
    3.8111   21.2070    4.2366 H   0  0  0  0  0  0  0  0  0  0  0  0
    5.0850   23.1171    3.0585 H   0  0  0  0  0  0  0  0  0  0  0  0
    9.2553   23.7833    4.0695 H   0  0  0  0  0  0  0  0  0  0  0  0
   10.6344   24.4261    6.0588 H   0  0  0  0  0  0  0  0  0  0  0  0
    9.6172   25.6911    7.9472 H   0  0  0  0  0  0  0  0  0  0  0  0
    7.1870   26.3135    7.8966 H   0  0  0  0  0  0  0  0  0  0  0  0
  1  2  1  0
  2  3  1  0
  3  4  2  0
  3  5  1  0
  5  6  1  0
  6  7  1  0
  7  8  2  0
  9  7  1  1
  9 10  1  0
 10 11  1  0
 11 12  3  0
 10 13  2  0
 13 14  1  0
 13 15  1  0
 15 16  1  0
 16 17  2  0
 17 18  1  0
 18 19  2  0
 19 20  1  0
 20 21  2  0
 21 22  1  0
 22 23  2  0
 23 24  1  0
 23 25  1  0
 25 26  2  0
 19 27  1  0
  9 28  1  0
 28 29  2  0
 29 30  1  0
 30 31  2  0
 31 32  1  0
 32 33  2  0
 33  6  1  0
 27  9  1  0
 33 28  1  0
 27 16  1  0
 26 20  1  0
  1 34  1  0
  1 35  1  0
  1 36  1  0
  5 37  1  0
  5 38  1  0
 14 39  1  0
 14 40  1  0
 21 41  1  0
 22 42  1  0
 25 43  1  0
 26 44  1  0
 27 45  1  6
 29 46  1  0
 30 47  1  0
 31 48  1  0
 32 49  1  0
M  END
>  <vina_affinity>  (1) 
-5.855

$$$$
dec_C52730752
     RDKit          3D

 30 32  0  0  0  0  0  0  0  0999 V2000
    1.8550   31.9380    6.9090 N   0  0  0  0  0  0  0  0  0  0  0  0
    1.1090   30.8360    7.4120 N   0  0  0  0  0  0  0  0  0  0  0  0
    0.1130   31.1450    8.3780 C   0  0  0  0  0  0  0  0  0  0  0  0
   -0.4470   30.1010    9.1110 C   0  0  0  0  0  0  0  0  0  0  0  0
   -1.4320   30.3740   10.0680 C   0  0  0  0  0  0  0  0  0  0  0  0
   -2.1160   29.2560   10.8140 C   0  0  0  0  0  0  0  0  0  0  0  0
   -1.1450   28.7210   12.2620 S   0  0  0  0  0  0  0  0  0  0  0  0
   -0.6380   27.1440   11.6690 C   0  0  0  0  0  0  0  0  0  0  0  0
   -1.4310   26.0700   11.8540 N   0  0  0  0  0  0  0  0  0  0  0  0
   -0.9880   24.8760   11.4120 C   0  0  0  0  0  0  0  0  0  0  0  0
    0.1820   24.5960   10.8240 N   0  0  0  0  0  0  0  0  0  0  0  0
    0.9580   25.6820   10.6610 C   0  0  0  0  0  0  0  0  0  0  0  0
    2.2150   25.6910   10.1240 N   0  0  0  0  0  0  0  0  0  0  0  0
    2.6040   26.9450   10.1820 C   0  0  0  0  0  0  0  0  0  0  0  0
    1.6440   27.7470   10.7370 N   0  0  0  0  0  0  0  0  0  0  0  0
    0.5810   26.9500   11.0590 C   0  0  0  0  0  0  0  0  0  0  0  0
   -1.7980   31.7040   10.2800 C   0  0  0  0  0  0  0  0  0  0  0  0
   -1.1770   32.6870    9.5290 C   0  0  0  0  0  0  0  0  0  0  0  0
   -0.2450   32.4350    8.5850 N   0  0  0  0  0  0  0  0  0  0  0  0
    2.6550   31.5630    6.3910 H   0  0  0  0  0  0  0  0  0  0  0  0
    2.3040   32.4110    7.7030 H   0  0  0  0  0  0  0  0  0  0  0  0
    0.7010   30.2460    6.6820 H   0  0  0  0  0  0  0  0  0  0  0  0
   -0.1166   29.0661    8.9386 H   0  0  0  0  0  0  0  0  0  0  0  0
   -3.1018   29.6053   11.1548 H   0  0  0  0  0  0  0  0  0  0  0  0
   -2.2165   28.3989   10.1319 H   0  0  0  0  0  0  0  0  0  0  0  0
   -1.6725   24.0264   11.5517 H   0  0  0  0  0  0  0  0  0  0  0  0
    3.5811   27.3056    9.8280 H   0  0  0  0  0  0  0  0  0  0  0  0
    1.7190   28.7400   10.9110 H   0  0  0  0  0  0  0  0  0  0  0  0
   -2.5624   31.9651   11.0267 H   0  0  0  0  0  0  0  0  0  0  0  0
   -1.4591   33.7344    9.7118 H   0  0  0  0  0  0  0  0  0  0  0  0
  1  2  1  0
  2  3  1  0
  3  4  2  0
  4  5  1  0
  5  6  1  0
  6  7  1  0
  7  8  1  0
  8  9  2  0
  9 10  1  0
 10 11  2  0
 11 12  1  0
 12 13  1  0
 13 14  2  0
 14 15  1  0
 15 16  1  0
  5 17  2  0
 17 18  1  0
 18 19  2  0
 19  3  1  0
 16  8  1  0
 16 12  2  0
  1 20  1  0
  1 21  1  0
  2 22  1  0
  4 23  1  0
  6 24  1  0
  6 25  1  0
 10 26  1  0
 14 27  1  0
 15 28  1  0
 17 29  1  0
 18 30  1  0
M  END
>  <vina_affinity>  (1) 
-6.794

$$$$
dec_C67632223
     RDKit          3D

 60 61  0  0  0  0  0  0  0  0999 V2000
   -0.7740   32.6930    9.0760 C   0  0  0  0  0  0  0  0  0  0  0  0
   -1.4510   31.4620    9.6020 C   0  0  0  0  0  0  0  0  0  0  0  0
   -2.7990   31.2190    9.3240 C   0  0  0  0  0  0  0  0  0  0  0  0
   -3.4380   30.1030    9.8620 C   0  0  0  0  0  0  0  0  0  0  0  0
   -2.7400   29.2220   10.6910 C   0  0  0  0  0  0  0  0  0  0  0  0
   -1.3960   29.4540   10.9840 C   0  0  0  0  0  0  0  0  0  0  0  0
   -0.6020   28.6770   11.7790 O   0  0  0  0  0  0  0  0  0  0  0  0
   -1.1130   28.3380   13.0760 C   0  0  0  0  0  0  0  0  0  0  0  0
   -0.9950   26.8110   13.2800 C   0  0  2  0  0  0  0  0  0  0  0  0
   -1.2990   26.4210   14.7250 C   0  0  0  0  0  0  0  0  0  0  0  0
    0.3350   26.3180   12.9120 N   0  0  0  0  0  0  0  0  0  0  0  0
    0.4900   25.4170   11.9000 C   0  0  0  0  0  0  0  0  0  0  0  0
   -0.4220   24.8710   11.2960 O   0  0  0  0  0  0  0  0  0  0  0  0
    1.8110   25.2440   11.5790 N   0  0  0  0  0  0  0  0  0  0  0  0
    2.2270   24.2700   10.5790 C   0  0  0  0  0  0  0  0  0  0  0  0
    3.3000   24.7550    9.5810 C   0  0  1  0  0  0  0  0  0  0  0  0
    3.7300   23.7340    8.6580 O   0  0  0  0  0  0  0  0  0  0  0  0
    2.8810   25.9770    8.7440 C   0  0  0  0  0  0  0  0  0  0  0  0
    3.4510   27.2260    9.4200 N   0  0  1  0  0  0  0  0  0  0  0  0
    4.4270   27.9960    8.5760 C   0  0  0  0  0  0  0  0  0  0  0  0
    3.6800   28.8040    7.5240 C   0  0  0  0  0  0  0  0  0  0  0  0
    2.6370   29.7320    8.1600 C   0  0  1  0  0  0  0  0  0  0  0  0
    1.8560   30.4850    7.0860 C   0  0  0  0  0  0  0  0  0  0  0  0
    1.6880   28.9450    9.0740 C   0  0  0  0  0  0  0  0  0  0  0  0
    2.4450   28.1100   10.0990 C   0  0  0  0  0  0  0  0  0  0  0  0
   -0.7630   30.5790   10.4450 C   0  0  0  0  0  0  0  0  0  0  0  0
   -0.4333   33.3125    9.9187 H   0  0  0  0  0  0  0  0  0  0  0  0
    0.0908   32.4018    8.4618 H   0  0  0  0  0  0  0  0  0  0  0  0
   -1.4831   33.2674    8.4618 H   0  0  0  0  0  0  0  0  0  0  0  0
   -3.3582   31.9115    8.6777 H   0  0  0  0  0  0  0  0  0  0  0  0
   -4.4973   29.9153    9.6325 H   0  0  0  0  0  0  0  0  0  0  0  0
   -3.2507   28.3441   11.1134 H   0  0  0  0  0  0  0  0  0  0  0  0
   -0.5304   28.8595   13.8497 H   0  0  0  0  0  0  0  0  0  0  0  0
   -2.1673   28.6425   13.1512 H   0  0  0  0  0  0  0  0  0  0  0  0
   -1.7389   26.3444   12.6175 H   0  0  0  0  0  0  0  0  0  0  0  0
   -0.7687   27.1013   15.4077 H   0  0  0  0  0  0  0  0  0  0  0  0
   -2.3820   26.4926   14.9040 H   0  0  0  0  0  0  0  0  0  0  0  0
   -0.9652   25.3883   14.9040 H   0  0  0  0  0  0  0  0  0  0  0  0
    1.0680   27.0130   12.9700 H   0  0  0  0  0  0  0  0  0  0  0  0
    2.4060   25.3080   12.3980 H   0  0  0  0  0  0  0  0  0  0  0  0
    2.6284   23.3928   11.1075 H   0  0  0  0  0  0  0  0  0  0  0  0
    1.3315   24.0556    9.9772 H   0  0  0  0  0  0  0  0  0  0  0  0
    4.1289   25.0379   10.2465 H   0  0  0  0  0  0  0  0  0  0  0  0
    4.4540   24.1220    8.1060 H   0  0  0  0  0  0  0  0  0  0  0  0
    3.2830   25.8873    7.7240 H   0  0  0  0  0  0  0  0  0  0  0  0
    1.7847   26.0413    8.6808 H   0  0  0  0  0  0  0  0  0  0  0  0
    4.0110   26.7990   10.1870 H   0  0  0  0  0  0  0  0  0  0  0  0
    5.0045   28.6781    9.2173 H   0  0  0  0  0  0  0  0  0  0  0  0
    5.1065   27.2909    8.0750 H   0  0  0  0  0  0  0  0  0  0  0  0
    4.4032   29.4125    6.9612 H   0  0  0  0  0  0  0  0  0  0  0  0
    3.1558   28.1018    6.8591 H   0  0  0  0  0  0  0  0  0  0  0  0
    3.1692   30.4703    8.7778 H   0  0  0  0  0  0  0  0  0  0  0  0
    1.1432   31.1723    7.5651 H   0  0  0  0  0  0  0  0  0  0  0  0
    2.5544   31.0592    6.4595 H   0  0  0  0  0  0  0  0  0  0  0  0
    1.3077   29.7661    6.4595 H   0  0  0  0  0  0  0  0  0  0  0  0
    1.0367   29.6547    9.6052 H   0  0  0  0  0  0  0  0  0  0  0  0
    1.1005   28.2601    8.4449 H   0  0  0  0  0  0  0  0  0  0  0  0
    2.9662   28.7807   10.7979 H   0  0  0  0  0  0  0  0  0  0  0  0
    1.7269   27.4784   10.6425 H   0  0  0  0  0  0  0  0  0  0  0  0
    0.2923   30.7737   10.6869 H   0  0  0  0  0  0  0  0  0  0  0  0
  1  2  1  0
  2  3  2  0
  3  4  1  0
  4  5  2  0
  5  6  1  0
  6  7  1  0
  7  8  1  0
  8  9  1  0
  9 10  1  0
  9 11  1  0
 11 12  1  0
 12 13  2  0
 12 14  1  0
 14 15  1  0
 15 16  1  0
 16 17  1  0
 16 18  1  0
 18 19  1  0
 19 20  1  0
 20 21  1  0
 21 22  1  0
 22 23  1  0
 22 24  1  0
 24 25  1  0
  6 26  2  0
 26  2  1  0
 25 19  1  0
  1 27  1  0
  1 28  1  0
  1 29  1  0
  3 30  1  0
  4 31  1  0
  5 32  1  0
  8 33  1  0
  8 34  1  0
  9 35  1  6
 10 36  1  0
 10 37  1  0
 10 38  1  0
 11 39  1  0
 14 40  1  0
 15 41  1  0
 15 42  1  0
 16 43  1  1
 17 44  1  0
 18 45  1  0
 18 46  1  0
 19 47  1  1
 20 48  1  0
 20 49  1  0
 21 50  1  0
 21 51  1  0
 22 52  1  1
 23 53  1  0
 23 54  1  0
 23 55  1  0
 24 56  1  0
 24 57  1  0
 25 58  1  0
 25 59  1  0
 26 60  1  0
M  CHG  1  19   1
M  END
>  <vina_affinity>  (1) 
-7.511

$$$$
dec_C05174319
     RDKit          3D

 35 36  0  0  0  0  0  0  0  0999 V2000
   -2.2700   32.4800   10.7300 C   0  0  0  0  0  0  0  0  0  0  0  0
   -1.5990   31.2910   10.0190 C   0  0  0  0  0  0  0  0  0  0  0  0
   -2.7050   30.4420    9.3590 C   0  0  0  0  0  0  0  0  0  0  0  0
   -0.6260   31.8240    8.9560 C   0  0  0  0  0  0  0  0  0  0  0  0
    0.2500   30.7370    8.3770 C   0  0  0  0  0  0  0  0  0  0  0  0
    0.7300   30.8250    7.2490 O   0  0  0  0  0  0  0  0  0  0  0  0
    0.5880   29.5640    9.2150 C   0  0  0  0  0  0  0  0  0  0  0  0
    0.1000   29.4010   10.4570 C   0  0  0  0  0  0  0  0  0  0  0  0
    0.4060   28.3580   11.3140 N   0  0  0  0  0  0  0  0  0  0  0  0
   -0.4150   27.5370   12.1160 C   0  0  0  0  0  0  0  0  0  0  0  0
   -0.6670   27.8180   13.4660 C   0  0  0  0  0  0  0  0  0  0  0  0
   -1.5170   27.0110   14.2330 C   0  0  0  0  0  0  0  0  0  0  0  0
   -2.1340   25.9030   13.6450 C   0  0  0  0  0  0  0  0  0  0  0  0
   -3.0250   25.0550   14.4460 N   0  0  0  0  0  0  0  0  0  0  0  0
   -4.2450   25.2520   14.3560 O   0  0  0  0  0  0  0  0  0  0  0  0
   -2.5030   24.1920   15.1650 O   0  0  0  0  0  0  0  0  0  0  0  0
   -1.9030   25.5930   12.3020 C   0  0  0  0  0  0  0  0  0  0  0  0
   -1.0510   26.4090   11.5510 C   0  0  0  0  0  0  0  0  0  0  0  0
   -0.7690   25.9430    9.7260 Br  0  0  0  0  0  0  0  0  0  0  0  0
   -0.8170   30.4580   11.0580 C   0  0  0  0  0  0  0  0  0  0  0  0
   -2.1944   32.3460   11.8192 H   0  0  0  0  0  0  0  0  0  0  0  0
   -1.7654   33.4132   10.4394 H   0  0  0  0  0  0  0  0  0  0  0  0
   -3.3297   32.5304   10.4394 H   0  0  0  0  0  0  0  0  0  0  0  0
   -3.3199   29.9700   10.1395 H   0  0  0  0  0  0  0  0  0  0  0  0
   -3.3388   31.0877    8.7334 H   0  0  0  0  0  0  0  0  0  0  0  0
   -2.2450   29.6628    8.7334 H   0  0  0  0  0  0  0  0  0  0  0  0
   -1.2082   32.2793    8.1413 H   0  0  0  0  0  0  0  0  0  0  0  0
    0.0313   32.5594    9.4430 H   0  0  0  0  0  0  0  0  0  0  0  0
    1.2632   28.7978    8.8063 H   0  0  0  0  0  0  0  0  0  0  0  0
    1.3980   28.1420   11.4030 H   0  0  0  0  0  0  0  0  0  0  0  0
   -0.1871   28.6907   13.9329 H   0  0  0  0  0  0  0  0  0  0  0  0
   -1.6979   27.2478   15.2919 H   0  0  0  0  0  0  0  0  0  0  0  0
   -2.3853   24.7182   11.8414 H   0  0  0  0  0  0  0  0  0  0  0  0
   -1.5438   29.9519   11.7104 H   0  0  0  0  0  0  0  0  0  0  0  0
   -0.1698   31.1622   11.6014 H   0  0  0  0  0  0  0  0  0  0  0  0
  1  2  1  0
  2  3  1  0
  2  4  1  0
  4  5  1  0
  5  6  2  0
  5  7  1  0
  7  8  2  0
  8  9  1  0
  9 10  1  0
 10 11  2  0
 11 12  1  0
 12 13  2  0
 13 14  1  0
 14 15  2  0
 14 16  1  0
 13 17  1  0
 17 18  2  0
 18 19  1  0
  8 20  1  0
 20  2  1  0
 18 10  1  0
  1 21  1  0
  1 22  1  0
  1 23  1  0
  3 24  1  0
  3 25  1  0
  3 26  1  0
  4 27  1  0
  4 28  1  0
  7 29  1  0
  9 30  1  0
 11 31  1  0
 12 32  1  0
 17 33  1  0
 20 34  1  0
 20 35  1  0
M  CHG  2  14   1  16  -1
M  END
>  <vina_affinity>  (1) 
-7.613

$$$$
dec_C36964077
     RDKit          3D

 30 31  0  0  0  0  0  0  0  0999 V2000
    0.3580   29.9480    8.5630 C   0  0  0  0  0  0  0  0  0  0  0  0
   -0.4030   29.2030    9.6080 C   0  0  0  0  0  0  0  0  0  0  0  0
   -1.7500   29.4320    9.9960 C   0  0  0  0  0  0  0  0  0  0  0  0
   -2.6450   30.4070    9.4470 C   0  0  0  0  0  0  0  0  0  0  0  0
   -3.3720   31.1910    8.9940 N   0  0  0  0  0  0  0  0  0  0  0  0
   -2.0800   28.5260   10.9850 C   0  0  0  0  0  0  0  0  0  0  0  0
   -3.2860   28.3180   11.5860 N   0  0  0  0  0  0  0  0  0  0  0  0
   -0.9440   27.7540   11.2600 N   0  0  0  0  0  0  0  0  0  0  0  0
   -0.8550   26.7270   12.2510 C   0  0  0  0  0  0  0  0  0  0  0  0
   -0.7700   27.0680   13.6070 C   0  0  0  0  0  0  0  0  0  0  0  0
   -0.6740   26.0660   14.5780 C   0  0  0  0  0  0  0  0  0  0  0  0
   -0.6670   24.7150   14.2060 C   0  0  0  0  0  0  0  0  0  0  0  0
   -0.5660   23.7180   15.2310 C   0  0  0  0  0  0  0  0  0  0  0  0
   -0.4850   22.9370   16.0860 N   0  0  0  0  0  0  0  0  0  0  0  0
   -0.7590   24.3770   12.8510 C   0  0  0  0  0  0  0  0  0  0  0  0
   -0.7710   22.7340   12.3160 Cl  0  0  0  0  0  0  0  0  0  0  0  0
   -0.8530   25.3780   11.8770 C   0  0  0  0  0  0  0  0  0  0  0  0
    0.0840   28.1810   10.4160 C   0  0  0  0  0  0  0  0  0  0  0  0
    1.4890   27.6730   10.4770 C   0  0  0  0  0  0  0  0  0  0  0  0
    1.0641   30.6392    9.0464 H   0  0  0  0  0  0  0  0  0  0  0  0
    0.9138   29.2352    7.9361 H   0  0  0  0  0  0  0  0  0  0  0  0
   -0.3428   30.5188    7.9361 H   0  0  0  0  0  0  0  0  0  0  0  0
   -4.0950   28.0850   11.0100 H   0  0  0  0  0  0  0  0  0  0  0  0
   -3.3260   27.8290   12.4790 H   0  0  0  0  0  0  0  0  0  0  0  0
   -0.7788   28.1258   13.9087 H   0  0  0  0  0  0  0  0  0  0  0  0
   -0.6035   26.3403   15.6409 H   0  0  0  0  0  0  0  0  0  0  0  0
   -0.9255   25.1037   10.8142 H   0  0  0  0  0  0  0  0  0  0  0  0
    1.7937   27.5628   11.5282 H   0  0  0  0  0  0  0  0  0  0  0  0
    1.5480   26.6966    9.9738 H   0  0  0  0  0  0  0  0  0  0  0  0
    2.1588   28.3859    9.9738 H   0  0  0  0  0  0  0  0  0  0  0  0
  1  2  1  0
  2  3  1  0
  3  4  1  0
  4  5  3  0
  3  6  2  0
  6  7  1  0
  6  8  1  0
  8  9  1  0
  9 10  2  0
 10 11  1  0
 11 12  2  0
 12 13  1  0
 13 14  3  0
 12 15  1  0
 15 16  1  0
 15 17  2  0
  8 18  1  0
 18 19  1  0
 18  2  2  0
 17  9  1  0
  1 20  1  0
  1 21  1  0
  1 22  1  0
  7 23  1  0
  7 24  1  0
 10 25  1  0
 11 26  1  0
 17 27  1  0
 19 28  1  0
 19 29  1  0
 19 30  1  0
M  END
>  <vina_affinity>  (1) 
-7.610

$$$$
dec_C39684199
     RDKit          3D

 74 77  0  0  0  0  0  0  0  0999 V2000
    2.2180   30.0620    7.8290 C   0  0  0  0  0  0  0  0  0  0  0  0
    1.0470   30.9060    7.3510 C   0  0  0  0  0  0  0  0  0  0  0  0
    0.9490   32.2680    8.0430 C   0  0  0  0  0  0  0  0  0  0  0  0
   -0.4960   32.6810    8.3540 C   0  0  0  0  0  0  0  0  0  0  0  0
   -1.1040   32.0770    9.6390 C   0  0  1  0  0  0  0  0  0  0  0  0
   -1.8930   33.0990   10.4580 C   0  0  0  0  0  0  0  0  0  0  0  0
   -1.9790   30.8580    9.3350 C   0  0  0  0  0  0  0  0  0  0  0  0
   -3.0090   30.9420    8.6670 O   0  0  0  0  0  0  0  0  0  0  0  0
   -1.5990   29.6440    9.8800 N   0  0  0  0  0  0  0  0  0  0  0  0
   -1.8990   29.3560   11.2690 C   0  0  0  0  0  0  0  0  0  0  0  0
   -1.7070   27.8460   11.4060 C   0  0  2  0  0  0  0  0  0  0  0  0
   -1.4060   27.4550   12.8450 C   0  0  0  0  0  0  0  0  0  0  0  0
   -0.3630   27.7860   13.4070 O   0  0  0  0  0  0  0  0  0  0  0  0
   -2.3480   26.6510   13.4330 N   0  0  0  0  0  0  0  0  0  0  0  0
   -2.2300   26.1910   14.8100 C   0  0  0  0  0  0  0  0  0  0  0  0
   -1.5100   24.8440   14.9140 C   0  0  0  0  0  0  0  0  0  0  0  0
   -2.4400   23.7370   15.2900 C   0  0  0  0  0  0  0  0  0  0  0  0
   -3.8170   23.8070   15.3480 C   0  0  0  0  0  0  0  0  0  0  0  0
   -4.2920   22.5820   15.7340 N   0  0  0  0  0  0  0  0  0  0  0  0
   -3.2510   21.7030   15.9400 C   0  0  0  0  0  0  0  0  0  0  0  0
   -3.2680   20.3540   16.3450 C   0  0  0  0  0  0  0  0  0  0  0  0
   -4.5120   19.5710   16.6470 C   0  0  0  0  0  0  0  0  0  0  0  0
   -2.0160   19.7200   16.4540 C   0  0  0  0  0  0  0  0  0  0  0  0
   -0.8270   20.3900   16.1800 C   0  0  0  0  0  0  0  0  0  0  0  0
   -0.8430   21.7290   15.7830 C   0  0  0  0  0  0  0  0  0  0  0  0
   -2.0760   22.4020   15.6610 C   0  0  0  0  0  0  0  0  0  0  0  0
   -0.6360   27.5180   10.3090 C   0  0  0  0  0  0  0  0  0  0  0  0
    0.8190   27.9340   10.6960 C   0  0  0  0  0  0  0  0  0  0  0  0
    1.7910   26.7630   10.8310 C   0  0  0  0  0  0  0  0  0  0  0  0
    1.1070   25.6330   11.4990 N   0  0  0  0  0  0  0  0  0  0  0  0
   -0.0260   25.0360   10.7480 C   0  0  0  0  0  0  0  0  0  0  0  0
   -0.6800   26.0570    9.8210 C   0  0  0  0  0  0  0  0  0  0  0  0
   -1.1430   28.4570    9.1830 C   0  0  0  0  0  0  0  0  0  0  0  0
    2.2359   30.0491    8.9288 H   0  0  0  0  0  0  0  0  0  0  0  0
    2.1075   29.0345    7.4520 H   0  0  0  0  0  0  0  0  0  0  0  0
    3.1578   30.4918    7.4520 H   0  0  0  0  0  0  0  0  0  0  0  0
    1.1575   31.0729    6.2694 H   0  0  0  0  0  0  0  0  0  0  0  0
    0.1290   30.3525    7.5979 H   0  0  0  0  0  0  0  0  0  0  0  0
    1.5113   32.2225    8.9873 H   0  0  0  0  0  0  0  0  0  0  0  0
    1.3639   33.0177    7.3532 H   0  0  0  0  0  0  0  0  0  0  0  0
   -0.5209   33.7764    8.4510 H   0  0  0  0  0  0  0  0  0  0  0  0
   -1.1039   32.2925    7.5236 H   0  0  0  0  0  0  0  0  0  0  0  0
   -0.2483   31.7524   10.2492 H   0  0  0  0  0  0  0  0  0  0  0  0
   -1.7427   32.9044   11.5302 H   0  0  0  0  0  0  0  0  0  0  0  0
   -1.5410   34.1128   10.2165 H   0  0  0  0  0  0  0  0  0  0  0  0
   -2.9629   33.0151   10.2165 H   0  0  0  0  0  0  0  0  0  0  0  0
   -1.2093   29.8961   11.9343 H   0  0  0  0  0  0  0  0  0  0  0  0
   -2.9150   29.6720   11.5481 H   0  0  0  0  0  0  0  0  0  0  0  0
   -2.5992   27.2297   11.2210 H   0  0  0  0  0  0  0  0  0  0  0  0
   -3.2070   26.4150   12.9470 H   0  0  0  0  0  0  0  0  0  0  0  0
   -1.6652   26.9392   15.3855 H   0  0  0  0  0  0  0  0  0  0  0  0
   -3.2467   26.0603   15.2089 H   0  0  0  0  0  0  0  0  0  0  0  0
   -1.0544   24.6093   13.9407 H   0  0  0  0  0  0  0  0  0  0  0  0
   -0.7471   24.9278   15.7020 H   0  0  0  0  0  0  0  0  0  0  0  0
   -4.4277   24.6938   15.1230 H   0  0  0  0  0  0  0  0  0  0  0  0
   -5.2670   22.3460   15.8500 H   0  0  0  0  0  0  0  0  0  0  0  0
   -4.6393   19.4909   17.7367 H   0  0  0  0  0  0  0  0  0  0  0  0
   -5.3827   20.0842   16.2129 H   0  0  0  0  0  0  0  0  0  0  0  0
   -4.4259   18.5640   16.2129 H   0  0  0  0  0  0  0  0  0  0  0  0
   -1.9761   18.6655   16.7644 H   0  0  0  0  0  0  0  0  0  0  0  0
    0.1325   19.8609   16.2769 H   0  0  0  0  0  0  0  0  0  0  0  0
    0.0990   22.2544   15.5672 H   0  0  0  0  0  0  0  0  0  0  0  0
    1.2019   28.6122    9.9192 H   0  0  0  0  0  0  0  0  0  0  0  0
    0.7586   28.4100   11.6858 H   0  0  0  0  0  0  0  0  0  0  0  0
    2.1290   26.4492    9.8324 H   0  0  0  0  0  0  0  0  0  0  0  0
    2.6601   27.0731   11.4297 H   0  0  0  0  0  0  0  0  0  0  0  0
    1.7760   24.9080   11.7840 H   0  0  0  0  0  0  0  0  0  0  0  0
    0.7190   25.9950   12.4000 H   0  0  0  0  0  0  0  0  0  0  0  0
    0.3475   24.1942   10.1464 H   0  0  0  0  0  0  0  0  0  0  0  0
   -0.7796   24.6942   11.4728 H   0  0  0  0  0  0  0  0  0  0  0  0
   -0.1683   26.0087    8.8485 H   0  0  0  0  0  0  0  0  0  0  0  0
   -1.7449   25.7853    9.7749 H   0  0  0  0  0  0  0  0  0  0  0  0
   -0.3285   28.7038    8.4861 H   0  0  0  0  0  0  0  0  0  0  0  0
   -1.9374   27.9951    8.5784 H   0  0  0  0  0  0  0  0  0  0  0  0
  1  2  1  0
  2  3  1  0
  3  4  1  0
  4  5  1  0
  5  6  1  0
  5  7  1  0
  7  8  2  0
  7  9  1  0
  9 10  1  0
 10 11  1  0
 11 12  1  0
 12 13  2  0
 12 14  1  0
 14 15  1  0
 15 16  1  0
 16 17  1  0
 17 18  2  0
 18 19  1  0
 19 20  1  0
 20 21  2  0
 21 22  1  0
 21 23  1  0
 23 24  2  0
 24 25  1  0
 25 26  2  0
 11 27  1  0
 27 28  1  0
 28 29  1  0
 29 30  1  0
 30 31  1  0
 31 32  1  0
 27 33  1  0
 33  9  1  0
 26 17  1  0
 32 27  1  0
 26 20  1  0
  1 34  1  0
  1 35  1  0
  1 36  1  0
  2 37  1  0
  2 38  1  0
  3 39  1  0
  3 40  1  0
  4 41  1  0
  4 42  1  0
  5 43  1  1
  6 44  1  0
  6 45  1  0
  6 46  1  0
 10 47  1  0
 10 48  1  0
 11 49  1  6
 14 50  1  0
 15 51  1  0
 15 52  1  0
 16 53  1  0
 16 54  1  0
 18 55  1  0
 19 56  1  0
 22 57  1  0
 22 58  1  0
 22 59  1  0
 23 60  1  0
 24 61  1  0
 25 62  1  0
 28 63  1  0
 28 64  1  0
 29 65  1  0
 29 66  1  0
 30 67  1  0
 30 68  1  0
 31 69  1  0
 31 70  1  0
 32 71  1  0
 32 72  1  0
 33 73  1  0
 33 74  1  0
M  CHG  1  30   1
M  END
>  <vina_affinity>  (1) 
-8.688

$$$$
dec_C64600509
     RDKit          3D

 49 52  0  0  0  0  0  0  0  0999 V2000
   -0.5580   19.3130   16.2420 C   0  0  0  0  0  0  0  0  0  0  0  0
   -1.2220   20.5690   16.0150 N   0  0  0  0  0  0  0  0  0  0  0  0
   -0.6330   21.6760   15.3940 C   0  0  0  0  0  0  0  0  0  0  0  0
    0.4950   21.7410   14.9280 O   0  0  0  0  0  0  0  0  0  0  0  0
   -1.7160   22.7960   15.3350 C   0  0  1  0  0  0  0  0  0  0  0  0
   -1.8960   23.2410   13.9730 N   0  0  0  0  0  0  0  0  0  0  0  0
   -1.2510   24.3750   13.5400 C   0  0  0  0  0  0  0  0  0  0  0  0
   -0.7690   25.2520   14.2420 O   0  0  0  0  0  0  0  0  0  0  0  0
   -1.1360   24.4820   12.0040 C   0  0  0  0  0  0  0  0  0  0  0  0
   -0.5410   23.6310   11.3580 O   0  0  0  0  0  0  0  0  0  0  0  0
   -1.7400   25.6070   11.4840 N   0  0  0  0  0  0  0  0  0  0  0  0
   -1.5640   26.0050   10.1070 C   0  0  0  0  0  0  0  0  0  0  0  0
   -0.5670   27.1590    9.9600 C   0  0  0  0  0  0  0  0  0  0  0  0
   -1.0970   28.5670   10.0000 C   0  0  0  0  0  0  0  0  0  0  0  0
   -0.6980   29.7100    9.4120 C   0  0  0  0  0  0  0  0  0  0  0  0
    0.3610   30.1090    8.5370 C   0  0  0  0  0  0  0  0  0  0  0  0
    0.4330   31.3940    8.1480 C   0  0  0  0  0  0  0  0  0  0  0  0
   -0.5290   32.3900    8.5860 C   0  0  0  0  0  0  0  0  0  0  0  0
   -1.5560   32.1090    9.4060 C   0  0  0  0  0  0  0  0  0  0  0  0
   -1.6860   30.7180    9.8650 C   0  0  0  0  0  0  0  0  0  0  0  0
   -2.5760   30.2310   10.6380 N   0  0  0  0  0  0  0  0  0  0  0  0
   -2.3350   28.7980   10.8380 C   0  0  0  0  0  0  0  0  0  0  0  0
   -2.9230   22.0930   15.8820 C   0  0  0  0  0  0  0  0  0  0  0  0
   -4.2160   22.5660   16.0380 C   0  0  0  0  0  0  0  0  0  0  0  0
   -5.1640   21.7100   16.6030 C   0  0  0  0  0  0  0  0  0  0  0  0
   -4.8100   20.4100   17.0050 C   0  0  0  0  0  0  0  0  0  0  0  0
   -3.5030   19.9430   16.8470 C   0  0  0  0  0  0  0  0  0  0  0  0
   -2.5750   20.8030   16.2860 C   0  0  0  0  0  0  0  0  0  0  0  0
   -0.4653   19.1376   17.3240 H   0  0  0  0  0  0  0  0  0  0  0  0
   -1.1446   18.5008   15.7878 H   0  0  0  0  0  0  0  0  0  0  0  0
    0.4435   19.3403   15.7878 H   0  0  0  0  0  0  0  0  0  0  0  0
   -1.4721   23.7096   15.8970 H   0  0  0  0  0  0  0  0  0  0  0  0
   -2.0850   22.5420   13.2620 H   0  0  0  0  0  0  0  0  0  0  0  0
   -2.0970   26.2670   12.1750 H   0  0  0  0  0  0  0  0  0  0  0  0
   -1.1940   25.1423    9.5336 H   0  0  0  0  0  0  0  0  0  0  0  0
   -2.5375   26.3501    9.7286 H   0  0  0  0  0  0  0  0  0  0  0  0
    0.1653   27.0630   10.7752 H   0  0  0  0  0  0  0  0  0  0  0  0
   -0.1690   27.0468    8.9407 H   0  0  0  0  0  0  0  0  0  0  0  0
    1.1040   29.3767    8.1882 H   0  0  0  0  0  0  0  0  0  0  0  0
    1.2476   31.7012    7.4756 H   0  0  0  0  0  0  0  0  0  0  0  0
   -0.4114   33.4239    8.2295 H   0  0  0  0  0  0  0  0  0  0  0  0
   -2.2685   32.8859    9.7202 H   0  0  0  0  0  0  0  0  0  0  0  0
   -3.3280   30.7900   11.0320 H   0  0  0  0  0  0  0  0  0  0  0  0
   -2.1490   28.5681   11.8975 H   0  0  0  0  0  0  0  0  0  0  0  0
   -3.1866   28.1615   10.5557 H   0  0  0  0  0  0  0  0  0  0  0  0
   -4.4877   23.5853   15.7262 H   0  0  0  0  0  0  0  0  0  0  0  0
   -6.1995   22.0569   16.7350 H   0  0  0  0  0  0  0  0  0  0  0  0
   -5.5717   19.7525   17.4494 H   0  0  0  0  0  0  0  0  0  0  0  0
   -3.2209   18.9263   17.1579 H   0  0  0  0  0  0  0  0  0  0  0  0
  1  2  1  0
  2  3  1  0
  3  4  2  0
  3  5  1  0
  5  6  1  0
  6  7  1  0
  7  8  2  0
  7  9  1  0
  9 10  2  0
  9 11  1  0
 11 12  1  0
 12 13  1  0
 13 14  1  0
 14 15  2  0
 15 16  1  0
 16 17  2  0
 17 18  1  0
 18 19  2  0
 19 20  1  0
 20 21  2  0
 21 22  1  0
  5 23  1  0
 23 24  2  0
 24 25  1  0
 25 26  2  0
 26 27  1  0
 27 28  2  0
 28  2  1  0
 22 14  1  0
 28 23  1  0
 20 15  1  0
  1 29  1  0
  1 30  1  0
  1 31  1  0
  5 32  1  1
  6 33  1  0
 11 34  1  0
 12 35  1  0
 12 36  1  0
 13 37  1  0
 13 38  1  0
 16 39  1  0
 17 40  1  0
 18 41  1  0
 19 42  1  0
 21 43  1  0
 22 44  1  0
 22 45  1  0
 24 46  1  0
 25 47  1  0
 26 48  1  0
 27 49  1  0
M  CHG  1  21   1
M  END
>  <vina_affinity>  (1) 
-9.050

$$$$
dec_C46896891
     RDKit          3D

 50 51  0  0  0  0  0  0  0  0999 V2000
   -3.3390   29.9260   10.4610 C   0  0  0  0  0  0  0  0  0  0  0  0
   -2.4050   30.9920    9.8410 C   0  0  0  0  0  0  0  0  0  0  0  0
   -2.6450   32.3100   10.6080 C   0  0  0  0  0  0  0  0  0  0  0  0
   -2.8390   31.1940    8.3760 C   0  0  0  0  0  0  0  0  0  0  0  0
   -0.9050   30.5360    9.9880 C   0  0  1  0  0  0  0  0  0  0  0  0
   -0.7720   29.0960   10.2080 N   0  0  0  0  0  0  0  0  0  0  0  0
   -0.3660   28.5780   11.4090 C   0  0  0  0  0  0  0  0  0  0  0  0
   -0.1360   29.2270   12.4240 O   0  0  0  0  0  0  0  0  0  0  0  0
   -0.2390   27.2020   11.3610 N   0  0  0  0  0  0  0  0  0  0  0  0
   -0.0280   26.5700   12.6140 N   0  0  0  0  0  0  0  0  0  0  0  0
   -0.8250   25.4730   12.8790 C   0  0  0  0  0  0  0  0  0  0  0  0
   -1.5170   24.9320   12.0180 O   0  0  0  0  0  0  0  0  0  0  0  0
   -0.7770   25.0080   14.3280 C   0  0  1  0  0  0  0  0  0  0  0  0
   -0.7670   26.1830   15.3180 C   0  0  0  0  0  0  0  0  0  0  0  0
   -2.1840   26.7510   15.3670 C   0  0  0  0  0  0  0  0  0  0  0  0
   -3.2610   25.3430   15.1620 S   0  0  0  0  0  0  0  0  0  0  0  0
   -3.7710   24.9530   16.4610 O   0  0  0  0  0  0  0  0  0  0  0  0
   -4.1300   25.5700   14.0290 O   0  0  0  0  0  0  0  0  0  0  0  0
   -2.0020   24.1710   14.6850 C   0  0  0  0  0  0  0  0  0  0  0  0
    0.0270   30.9670    8.8560 C   0  0  0  0  0  0  0  0  0  0  0  0
    0.2170   32.3140    8.5060 C   0  0  0  0  0  0  0  0  0  0  0  0
    1.0730   32.6680    7.4610 C   0  0  0  0  0  0  0  0  0  0  0  0
    1.7520   31.6840    6.7480 C   0  0  0  0  0  0  0  0  0  0  0  0
    1.5720   30.3440    7.0760 C   0  0  0  0  0  0  0  0  0  0  0  0
    0.7170   29.9870    8.1210 C   0  0  0  0  0  0  0  0  0  0  0  0
   -3.2865   29.9860   11.5581 H   0  0  0  0  0  0  0  0  0  0  0  0
   -4.3729   30.1089   10.1329 H   0  0  0  0  0  0  0  0  0  0  0  0
   -3.0218   28.9251   10.1329 H   0  0  0  0  0  0  0  0  0  0  0  0
   -2.6097   32.1161   11.6902 H   0  0  0  0  0  0  0  0  0  0  0  0
   -1.8645   33.0374   10.3402 H   0  0  0  0  0  0  0  0  0  0  0  0
   -3.6318   32.7156   10.3402 H   0  0  0  0  0  0  0  0  0  0  0  0
   -3.8360   31.6580    8.3496 H   0  0  0  0  0  0  0  0  0  0  0  0
   -2.1164   31.8483    7.8664 H   0  0  0  0  0  0  0  0  0  0  0  0
   -2.8744   30.2198    7.8664 H   0  0  0  0  0  0  0  0  0  0  0  0
   -0.5742   31.0783   10.8860 H   0  0  0  0  0  0  0  0  0  0  0  0
   -0.5570   28.5250    9.4040 H   0  0  0  0  0  0  0  0  0  0  0  0
   -0.9210   26.7160   10.7780 H   0  0  0  0  0  0  0  0  0  0  0  0
    0.1770   27.2320   13.3650 H   0  0  0  0  0  0  0  0  0  0  0  0
    0.1510   24.4232   14.4103 H   0  0  0  0  0  0  0  0  0  0  0  0
   -0.4683   25.8309   16.3164 H   0  0  0  0  0  0  0  0  0  0  0  0
   -0.0503   26.9540   14.9986 H   0  0  0  0  0  0  0  0  0  0  0  0
   -2.3698   27.2410   16.3342 H   0  0  0  0  0  0  0  0  0  0  0  0
   -2.3490   27.5110   14.5891 H   0  0  0  0  0  0  0  0  0  0  0  0
   -1.7733   23.4921   15.5197 H   0  0  0  0  0  0  0  0  0  0  0  0
   -2.3273   23.5448   13.8412 H   0  0  0  0  0  0  0  0  0  0  0  0
   -0.3152   33.0999    9.0620 H   0  0  0  0  0  0  0  0  0  0  0  0
    1.2111   33.7277    7.2005 H   0  0  0  0  0  0  0  0  0  0  0  0
    2.4288   31.9650    5.9277 H   0  0  0  0  0  0  0  0  0  0  0  0
    2.1041   29.5643    6.5112 H   0  0  0  0  0  0  0  0  0  0  0  0
    0.5816   28.9247    8.3724 H   0  0  0  0  0  0  0  0  0  0  0  0
  1  2  1  0
  2  3  1  0
  2  4  1  0
  2  5  1  0
  5  6  1  0
  6  7  1  0
  7  8  2  0
  7  9  1  0
  9 10  1  0
 10 11  1  0
 11 12  2  0
 11 13  1  0
 13 14  1  0
 14 15  1  0
 15 16  1  0
 16 17  2  0
 16 18  2  0
 16 19  1  0
  5 20  1  0
 20 21  2  0
 21 22  1  0
 22 23  2  0
 23 24  1  0
 24 25  2  0
 19 13  1  0
 25 20  1  0
  1 26  1  0
  1 27  1  0
  1 28  1  0
  3 29  1  0
  3 30  1  0
  3 31  1  0
  4 32  1  0
  4 33  1  0
  4 34  1  0
  5 35  1  1
  6 36  1  0
  9 37  1  0
 10 38  1  0
 13 39  1  6
 14 40  1  0
 14 41  1  0
 15 42  1  0
 15 43  1  0
 19 44  1  0
 19 45  1  0
 21 46  1  0
 22 47  1  0
 23 48  1  0
 24 49  1  0
 25 50  1  0
M  END
>  <vina_affinity>  (1) 
-8.316

$$$$
dec_C14387756
     RDKit          3D

 46 48  0  0  0  0  0  0  0  0999 V2000
   -3.1110   30.5380    9.6720 C   0  0  0  0  0  0  0  0  0  0  0  0
   -1.6940   30.1160    9.3850 C   0  0  0  0  0  0  0  0  0  0  0  0
   -0.8950   30.9650    8.5960 C   0  0  0  0  0  0  0  0  0  0  0  0
    0.4240   30.6280    8.3060 C   0  0  0  0  0  0  0  0  0  0  0  0
    1.4790   31.7810    7.2420 Br  0  0  0  0  0  0  0  0  0  0  0  0
    0.9680   29.4490    8.7970 C   0  0  0  0  0  0  0  0  0  0  0  0
    0.1860   28.5990    9.5840 C   0  0  0  0  0  0  0  0  0  0  0  0
   -1.1440   28.9170    9.8910 C   0  0  0  0  0  0  0  0  0  0  0  0
   -1.9570   28.0760   10.6850 N   0  0  0  0  0  0  0  0  0  0  0  0
   -1.7290   27.6280   11.9760 C   0  0  0  0  0  0  0  0  0  0  0  0
   -0.7620   27.8830   12.6870 O   0  0  0  0  0  0  0  0  0  0  0  0
   -2.8480   26.7120   12.4870 C   0  0  0  0  0  0  0  0  0  0  0  0
   -2.3300   25.4440   12.9640 N   0  0  0  0  0  0  0  0  0  0  0  0
   -2.2230   25.1480   14.3050 C   0  0  0  0  0  0  0  0  0  0  0  0
   -2.5600   25.9800   15.1500 O   0  0  0  0  0  0  0  0  0  0  0  0
   -1.6590   23.8510   14.6410 C   0  0  0  0  0  0  0  0  0  0  0  0
   -0.4360   23.3520   14.2350 C   0  0  0  0  0  0  0  0  0  0  0  0
   -0.1680   22.0350   14.7300 C   0  0  0  0  0  0  0  0  0  0  0  0
   -1.2160   21.5770   15.5080 C   0  0  0  0  0  0  0  0  0  0  0  0
   -2.4800   22.7210   15.6270 S   0  0  0  0  0  0  0  0  0  0  0  0
   -1.3250   20.2540   16.2060 C   0  0  0  0  0  0  0  0  0  0  0  0
   -1.1700   19.0780   15.2390 C   0  0  0  0  0  0  0  0  0  0  0  0
    0.2680   18.8380   14.7390 C   0  0  0  0  0  0  0  0  0  0  0  0
    0.8120   19.9050   13.7850 C   0  0  0  0  0  0  0  0  0  0  0  0
    1.0810   21.2570   14.4430 C   0  0  0  0  0  0  0  0  0  0  0  0
   -3.2666   30.5843   10.7600 H   0  0  0  0  0  0  0  0  0  0  0  0
   -3.2943   31.5297    9.2328 H   0  0  0  0  0  0  0  0  0  0  0  0
   -3.8070   29.8082    9.2328 H   0  0  0  0  0  0  0  0  0  0  0  0
   -1.3167   31.9028    8.2053 H   0  0  0  0  0  0  0  0  0  0  0  0
    2.0108   29.1847    8.5675 H   0  0  0  0  0  0  0  0  0  0  0  0
    0.6216   27.6651    9.9688 H   0  0  0  0  0  0  0  0  0  0  0  0
   -2.8450   27.7820   10.2780 H   0  0  0  0  0  0  0  0  0  0  0  0
   -3.3717   27.2160   13.3127 H   0  0  0  0  0  0  0  0  0  0  0  0
   -3.5326   26.5089   11.6503 H   0  0  0  0  0  0  0  0  0  0  0  0
   -1.9110   24.8050   12.2990 H   0  0  0  0  0  0  0  0  0  0  0  0
    0.2626   23.9109   13.5950 H   0  0  0  0  0  0  0  0  0  0  0  0
   -0.5369   20.1905   16.9707 H   0  0  0  0  0  0  0  0  0  0  0  0
   -2.3259   20.1911   16.6579 H   0  0  0  0  0  0  0  0  0  0  0  0
   -1.5108   18.1663   15.7515 H   0  0  0  0  0  0  0  0  0  0  0  0
   -1.7695   19.3262   14.3507 H   0  0  0  0  0  0  0  0  0  0  0  0
    0.9308   18.7955   15.6159 H   0  0  0  0  0  0  0  0  0  0  0  0
    0.2395   17.9003   14.1646 H   0  0  0  0  0  0  0  0  0  0  0  0
    1.7559   19.5360   13.3573 H   0  0  0  0  0  0  0  0  0  0  0  0
    0.0354   20.0734   13.0243 H   0  0  0  0  0  0  0  0  0  0  0  0
    1.6108   21.0846   15.3915 H   0  0  0  0  0  0  0  0  0  0  0  0
    1.6796   21.8503   13.7362 H   0  0  0  0  0  0  0  0  0  0  0  0
  1  2  1  0
  2  3  2  0
  3  4  1  0
  4  5  1  0
  4  6  2  0
  6  7  1  0
  7  8  2  0
  8  9  1  0
  9 10  1  0
 10 11  2  0
 10 12  1  0
 12 13  1  0
 13 14  1  0
 14 15  2  0
 14 16  1  0
 16 17  2  0
 17 18  1  0
 18 19  2  0
 19 20  1  0
 19 21  1  0
 21 22  1  0
 22 23  1  0
 23 24  1  0
 24 25  1  0
  8  2  1  0
 20 16  1  0
 25 18  1  0
  1 26  1  0
  1 27  1  0
  1 28  1  0
  3 29  1  0
  6 30  1  0
  7 31  1  0
  9 32  1  0
 12 33  1  0
 12 34  1  0
 13 35  1  0
 17 36  1  0
 21 37  1  0
 21 38  1  0
 22 39  1  0
 22 40  1  0
 23 41  1  0
 23 42  1  0
 24 43  1  0
 24 44  1  0
 25 45  1  0
 25 46  1  0
M  END
>  <vina_affinity>  (1) 
-6.200

$$$$
dec_C21009297
     RDKit          3D

 29 30  0  0  0  0  0  0  0  0999 V2000
   -1.5240   32.6130    9.9090 N   0  0  0  0  0  0  0  0  0  0  0  0
   -0.7700   31.7300    9.1150 C   0  0  0  0  0  0  0  0  0  0  0  0
    0.1530   32.2730    8.2110 C   0  0  0  0  0  0  0  0  0  0  0  0
    1.0020   31.4470    7.4770 C   0  0  0  0  0  0  0  0  0  0  0  0
    1.8550   31.9930    6.6010 F   0  0  0  0  0  0  0  0  0  0  0  0
    0.9850   30.0680    7.6440 C   0  0  0  0  0  0  0  0  0  0  0  0
    0.1210   29.5090    8.5810 C   0  0  0  0  0  0  0  0  0  0  0  0
   -0.7220   30.3420    9.3370 C   0  0  0  0  0  0  0  0  0  0  0  0
   -1.7580   29.5860   10.5740 S   0  0  0  0  0  0  0  0  0  0  0  0
   -3.1340   29.9260   10.2790 O   0  0  0  0  0  0  0  0  0  0  0  0
   -1.1800   29.8770   11.8700 O   0  0  0  0  0  0  0  0  0  0  0  0
   -1.5200   27.9250   10.2930 N   0  0  0  0  0  0  0  0  0  0  0  0
   -1.3820   27.0570   11.4280 C   0  0  0  0  0  0  0  0  0  0  0  0
   -2.4930   26.7610   12.2210 C   0  0  0  0  0  0  0  0  0  0  0  0
   -2.3700   25.8990   13.3160 C   0  0  0  0  0  0  0  0  0  0  0  0
   -3.7900   25.5690   14.2420 Cl  0  0  0  0  0  0  0  0  0  0  0  0
   -1.1270   25.3360   13.6270 C   0  0  0  0  0  0  0  0  0  0  0  0
   -0.9050   24.2620   14.9610 Cl  0  0  0  0  0  0  0  0  0  0  0  0
   -0.0070   25.6430   12.8500 C   0  0  0  0  0  0  0  0  0  0  0  0
   -0.1350   26.5030   11.7590 C   0  0  0  0  0  0  0  0  0  0  0  0
    1.2780   26.8730   10.8360 Cl  0  0  0  0  0  0  0  0  0  0  0  0
   -1.1720   32.6840   10.8720 H   0  0  0  0  0  0  0  0  0  0  0  0
   -2.5210   32.4110    9.9160 H   0  0  0  0  0  0  0  0  0  0  0  0
    0.2079   33.3637    8.0793 H   0  0  0  0  0  0  0  0  0  0  0  0
    1.6460   29.4260    7.0433 H   0  0  0  0  0  0  0  0  0  0  0  0
    0.0979   28.4193    8.7295 H   0  0  0  0  0  0  0  0  0  0  0  0
   -2.1980   27.6060    9.5920 H   0  0  0  0  0  0  0  0  0  0  0  0
   -3.4696   27.2079   11.9834 H   0  0  0  0  0  0  0  0  0  0  0  0
    0.9725   25.2080   13.0977 H   0  0  0  0  0  0  0  0  0  0  0  0
  1  2  1  0
  2  3  2  0
  3  4  1  0
  4  5  1  0
  4  6  2  0
  6  7  1  0
  7  8  2  0
  8  9  1  0
  9 10  2  0
  9 11  2  0
  9 12  1  0
 12 13  1  0
 13 14  2  0
 14 15  1  0
 15 16  1  0
 15 17  2  0
 17 18  1  0
 17 19  1  0
 19 20  2  0
 20 21  1  0
  8  2  1  0
 20 13  1  0
  1 22  1  0
  1 23  1  0
  3 24  1  0
  6 25  1  0
  7 26  1  0
 12 27  1  0
 14 28  1  0
 19 29  1  0
M  END
>  <vina_affinity>  (1) 
-7.331

$$$$
dec_C13199581
     RDKit          3D

 43 45  0  0  0  0  0  0  0  0999 V2000
   -1.8960   32.1510    9.8950 C   0  0  0  0  0  0  0  0  0  0  0  0
   -0.9000   31.0310    9.8390 C   0  0  0  0  0  0  0  0  0  0  0  0
   -0.3650   30.5090   11.0210 C   0  0  0  0  0  0  0  0  0  0  0  0
    0.4880   29.4050   10.9870 C   0  0  0  0  0  0  0  0  0  0  0  0
    0.8010   28.7760    9.7710 C   0  0  0  0  0  0  0  0  0  0  0  0
    1.6420   27.5120    9.7140 C   0  0  2  0  0  0  0  0  0  0  0  0
    1.9120   26.9240   11.0370 N   0  0  0  0  0  0  0  0  0  0  0  0
    1.4650   25.3270   11.3100 S   0  0  0  0  0  0  0  0  0  0  0  0
    2.6050   24.6760   11.9210 O   0  0  0  0  0  0  0  0  0  0  0  0
    0.8820   24.8170   10.0860 O   0  0  0  0  0  0  0  0  0  0  0  0
    0.1960   25.4290   12.5410 C   0  0  0  0  0  0  0  0  0  0  0  0
   -0.5480   26.6030   12.6900 C   0  0  0  0  0  0  0  0  0  0  0  0
   -1.4970   26.6820   13.7090 C   0  0  0  0  0  0  0  0  0  0  0  0
   -1.6800   25.6040   14.5750 C   0  0  0  0  0  0  0  0  0  0  0  0
   -2.6050   25.7630   15.5760 O   0  0  0  0  0  0  0  0  0  0  0  0
   -0.9440   24.4170   14.4370 C   0  0  0  0  0  0  0  0  0  0  0  0
   -1.0850   23.2800   15.4160 C   0  0  0  0  0  0  0  0  0  0  0  0
   -0.0200   22.7650   15.8780 O   0  0  0  0  0  0  0  0  0  0  0  0
   -2.2800   22.9470   15.7110 O   0  0  0  0  0  0  0  0  0  0  0  0
   -0.0240   24.3310   13.3800 C   0  0  0  0  0  0  0  0  0  0  0  0
    2.9800   27.7640    9.0340 C   0  0  0  0  0  0  0  0  0  0  0  0
    3.5860   28.9600    8.6820 C   0  0  0  0  0  0  0  0  0  0  0  0
    4.8470   28.7730    8.0460 C   0  0  0  0  0  0  0  0  0  0  0  0
    5.1720   27.4430    7.9290 C   0  0  0  0  0  0  0  0  0  0  0  0
    3.9660   26.4260    8.5830 S   0  0  0  0  0  0  0  0  0  0  0  0
    0.2750   29.3180    8.5860 C   0  0  0  0  0  0  0  0  0  0  0  0
   -0.5710   30.4300    8.6210 C   0  0  0  0  0  0  0  0  0  0  0  0
   -2.1138   32.3959   10.9451 H   0  0  0  0  0  0  0  0  0  0  0  0
   -1.4812   33.0361    9.3905 H   0  0  0  0  0  0  0  0  0  0  0  0
   -2.8235   31.8424    9.3905 H   0  0  0  0  0  0  0  0  0  0  0  0
   -0.6187   30.9726   11.9857 H   0  0  0  0  0  0  0  0  0  0  0  0
    0.9202   29.0230   11.9236 H   0  0  0  0  0  0  0  0  0  0  0  0
    1.0369   26.8007    9.1326 H   0  0  0  0  0  0  0  0  0  0  0  0
    1.6650   27.5200   11.8240 H   0  0  0  0  0  0  0  0  0  0  0  0
   -0.3870   27.4540   12.0119 H   0  0  0  0  0  0  0  0  0  0  0  0
   -2.1006   27.5936   13.8296 H   0  0  0  0  0  0  0  0  0  0  0  0
   -3.2890   26.3860   15.2020 H   0  0  0  0  0  0  0  0  0  0  0  0
    0.5274   23.3944   13.2103 H   0  0  0  0  0  0  0  0  0  0  0  0
    3.1409   29.9476    8.8732 H   0  0  0  0  0  0  0  0  0  0  0  0
    5.4849   29.5957    7.6907 H   0  0  0  0  0  0  0  0  0  0  0  0
    6.1008   27.0761    7.4678 H   0  0  0  0  0  0  0  0  0  0  0  0
    0.5323   28.8614    7.6189 H   0  0  0  0  0  0  0  0  0  0  0  0
   -0.9805   30.8347    7.6837 H   0  0  0  0  0  0  0  0  0  0  0  0
  1  2  1  0
  2  3  2  0
  3  4  1  0
  4  5  2  0
  5  6  1  0
  6  7  1  0
  7  8  1  0
  8  9  2  0
  8 10  2  0
  8 11  1  0
 11 12  2  0
 12 13  1  0
 13 14  2  0
 14 15  1  0
 14 16  1  0
 16 17  1  0
 17 18  2  0
 17 19  1  0
 16 20  2  0
  6 21  1  0
 21 22  2  0
 22 23  1  0
 23 24  2  0
 24 25  1  0
  5 26  1  0
 26 27  2  0
 27  2  1  0
 20 11  1  0
 25 21  1  0
  1 28  1  0
  1 29  1  0
  1 30  1  0
  3 31  1  0
  4 32  1  0
  6 33  1  6
  7 34  1  0
 12 35  1  0
 13 36  1  0
 15 37  1  0
 20 38  1  0
 22 39  1  0
 23 40  1  0
 24 41  1  0
 26 42  1  0
 27 43  1  0
M  CHG  1  19  -1
M  END
>  <vina_affinity>  (1) 
-8.085

$$$$
dec_C13131261
     RDKit          3D

 46 49  0  0  0  0  0  0  0  0999 V2000
   -4.0320   24.0910   15.7060 C   0  0  0  0  0  0  0  0  0  0  0  0
   -4.1760   25.3600   15.0800 O   0  0  0  0  0  0  0  0  0  0  0  0
   -3.0440   25.9200   14.5530 C   0  0  0  0  0  0  0  0  0  0  0  0
   -1.8360   26.1090   15.2190 C   0  0  0  0  0  0  0  0  0  0  0  0
   -0.7560   26.6930   14.5540 C   0  0  0  0  0  0  0  0  0  0  0  0
   -0.8770   27.0880   13.2210 C   0  0  0  0  0  0  0  0  0  0  0  0
   -2.0820   26.9070   12.5310 C   0  0  0  0  0  0  0  0  0  0  0  0
   -2.2510   27.2950   11.0670 C   0  0  2  0  0  0  0  0  0  0  0  0
   -0.9000   27.3140   10.3270 C   0  0  0  0  0  0  0  0  0  0  0  0
   -0.1110   28.5930   10.6450 C   0  0  1  0  0  0  0  0  0  0  0  0
    1.1800   28.6200    9.8370 C   0  0  0  0  0  0  0  0  0  0  0  0
    1.3890   29.5480    8.8050 C   0  0  0  0  0  0  0  0  0  0  0  0
    2.5660   29.5270    8.0520 C   0  0  0  0  0  0  0  0  0  0  0  0
    3.5520   28.5680    8.3030 C   0  0  0  0  0  0  0  0  0  0  0  0
    4.8310   28.5690    7.5190 C   0  0  0  0  0  0  0  0  0  0  0  0
    3.3550   27.6460    9.3360 C   0  0  0  0  0  0  0  0  0  0  0  0
    2.1780   27.6670   10.0900 C   0  0  0  0  0  0  0  0  0  0  0  0
   -0.9940   29.7040   10.3510 N   0  0  0  0  0  0  0  0  0  0  0  0
   -0.5620   31.0410   10.3770 N   0  0  0  0  0  0  0  0  0  0  0  0
   -1.6990   31.6940   10.4240 C   0  0  0  0  0  0  0  0  0  0  0  0
   -1.8890   33.0290   10.4610 N   0  0  0  0  0  0  0  0  0  0  0  0
   -2.7800   30.8700   10.4610 N   0  0  0  0  0  0  0  0  0  0  0  0
   -2.3600   29.5700   10.5650 C   0  0  0  0  0  0  0  0  0  0  0  0
   -3.0420   28.5370   10.8820 N   0  0  0  0  0  0  0  0  0  0  0  0
   -3.1590   26.3180   13.2170 C   0  0  0  0  0  0  0  0  0  0  0  0
   -4.0463   24.2174   16.7986 H   0  0  0  0  0  0  0  0  0  0  0  0
   -4.8616   23.4358   15.4018 H   0  0  0  0  0  0  0  0  0  0  0  0
   -3.0767   23.6384   15.4018 H   0  0  0  0  0  0  0  0  0  0  0  0
   -1.7324   25.7982   16.2691 H   0  0  0  0  0  0  0  0  0  0  0  0
    0.1961   26.8427   15.0841 H   0  0  0  0  0  0  0  0  0  0  0  0
   -0.0183   27.5455   12.7078 H   0  0  0  0  0  0  0  0  0  0  0  0
   -2.8547   26.5059   10.5950 H   0  0  0  0  0  0  0  0  0  0  0  0
   -0.3081   26.4405   10.6380 H   0  0  0  0  0  0  0  0  0  0  0  0
   -1.0949   27.2847    9.2448 H   0  0  0  0  0  0  0  0  0  0  0  0
    0.1978   28.6472   11.6994 H   0  0  0  0  0  0  0  0  0  0  0  0
    0.6172   30.3007    8.5863 H   0  0  0  0  0  0  0  0  0  0  0  0
    2.7179   30.2706    7.2558 H   0  0  0  0  0  0  0  0  0  0  0  0
    5.6856   28.5697    8.2116 H   0  0  0  0  0  0  0  0  0  0  0  0
    4.8733   27.6709    6.8853 H   0  0  0  0  0  0  0  0  0  0  0  0
    4.8719   29.4672    6.8853 H   0  0  0  0  0  0  0  0  0  0  0  0
    4.1317   26.8990    9.5567 H   0  0  0  0  0  0  0  0  0  0  0  0
    2.0326   26.9275   10.8912 H   0  0  0  0  0  0  0  0  0  0  0  0
   -2.6240   33.3540    9.8450 H   0  0  0  0  0  0  0  0  0  0  0  0
   -1.0200   33.5230   10.2770 H   0  0  0  0  0  0  0  0  0  0  0  0
   -3.6520   31.1360   10.8830 H   0  0  0  0  0  0  0  0  0  0  0  0
   -4.1133   26.1669   12.6912 H   0  0  0  0  0  0  0  0  0  0  0  0
  1  2  1  0
  2  3  1  0
  3  4  2  0
  4  5  1  0
  5  6  2  0
  6  7  1  0
  7  8  1  0
  8  9  1  0
  9 10  1  0
 10 11  1  0
 11 12  2  0
 12 13  1  0
 13 14  2  0
 14 15  1  0
 14 16  1  0
 16 17  2  0
 10 18  1  0
 18 19  1  0
 19 20  2  0
 20 21  1  0
 20 22  1  0
 22 23  1  0
 23 24  2  0
  7 25  2  0
 25  3  1  0
 24  8  1  0
 17 11  1  0
 23 18  1  0
  1 26  1  0
  1 27  1  0
  1 28  1  0
  4 29  1  0
  5 30  1  0
  6 31  1  0
  8 32  1  6
  9 33  1  0
  9 34  1  0
 10 35  1  1
 12 36  1  0
 13 37  1  0
 15 38  1  0
 15 39  1  0
 15 40  1  0
 16 41  1  0
 17 42  1  0
 21 43  1  0
 21 44  1  0
 22 45  1  0
 25 46  1  0
M  END
>  <vina_affinity>  (1) 
-9.069

$$$$
dec_C66596411
     RDKit          3D

 40 42  0  0  0  0  0  0  0  0999 V2000
   -1.1460   25.7900    9.7150 C   0  0  0  0  0  0  0  0  0  0  0  0
   -1.0230   25.1560   11.0540 C   0  0  0  0  0  0  0  0  0  0  0  0
   -0.2080   24.0410   11.1750 N   0  0  0  0  0  0  0  0  0  0  0  0
   -0.2240   23.6100   12.4140 C   0  0  0  0  0  0  0  0  0  0  0  0
   -1.2100   24.4850   13.5030 S   0  0  0  0  0  0  0  0  0  0  0  0
   -1.6450   25.5560   12.2290 C   0  0  0  0  0  0  0  0  0  0  0  0
   -2.5900   26.6920   12.4640 C   0  0  0  0  0  0  0  0  0  0  0  0
   -1.9160   27.9720   12.2480 N   0  0  0  0  0  0  0  0  0  0  0  0
   -0.6490   28.1680   12.9340 C   0  0  0  0  0  0  0  0  0  0  0  0
   -2.2530   28.8610   11.2410 C   0  0  0  0  0  0  0  0  0  0  0  0
   -3.4020   29.0160   10.8380 O   0  0  0  0  0  0  0  0  0  0  0  0
   -1.1970   29.5640   10.7200 N   0  0  0  0  0  0  0  0  0  0  0  0
   -1.4190   30.5000    9.6400 C   0  0  1  0  0  0  0  0  0  0  0  0
   -1.6310   31.9380   10.1580 C   0  0  0  0  0  0  0  0  0  0  0  0
   -1.1010   32.8800    9.0720 C   0  0  0  0  0  0  0  0  0  0  0  0
   -0.0320   32.0400    8.4480 C   0  0  0  0  0  0  0  0  0  0  0  0
    0.9930   32.4570    7.6140 C   0  0  0  0  0  0  0  0  0  0  0  0
    1.8530   31.4930    7.0870 C   0  0  0  0  0  0  0  0  0  0  0  0
    1.6700   30.1350    7.3830 C   0  0  0  0  0  0  0  0  0  0  0  0
    0.6270   29.7210    8.2160 C   0  0  0  0  0  0  0  0  0  0  0  0
   -0.2110   30.6850    8.7600 C   0  0  0  0  0  0  0  0  0  0  0  0
   -1.3542   26.8634    9.8353 H   0  0  0  0  0  0  0  0  0  0  0  0
   -0.2057   25.6589    9.1595 H   0  0  0  0  0  0  0  0  0  0  0  0
   -1.9691   25.3168    9.1595 H   0  0  0  0  0  0  0  0  0  0  0  0
    0.3629   22.7363   12.7338 H   0  0  0  0  0  0  0  0  0  0  0  0
   -3.4379   26.6074   11.7683 H   0  0  0  0  0  0  0  0  0  0  0  0
   -2.9468   26.6488   13.5036 H   0  0  0  0  0  0  0  0  0  0  0  0
   -0.8130   28.1426   14.0214 H   0  0  0  0  0  0  0  0  0  0  0  0
    0.0496   27.3672   12.6498 H   0  0  0  0  0  0  0  0  0  0  0  0
   -0.2250   29.1424   12.6498 H   0  0  0  0  0  0  0  0  0  0  0  0
   -0.3490   29.0220   10.6590 H   0  0  0  0  0  0  0  0  0  0  0  0
   -2.2836   30.0693    9.1137 H   0  0  0  0  0  0  0  0  0  0  0  0
   -2.7010   32.1243   10.3322 H   0  0  0  0  0  0  0  0  0  0  0  0
   -1.1047   32.0969   11.1108 H   0  0  0  0  0  0  0  0  0  0  0  0
   -1.8855   33.1379    8.3453 H   0  0  0  0  0  0  0  0  0  0  0  0
   -0.7464   33.8495    9.4518 H   0  0  0  0  0  0  0  0  0  0  0  0
    1.1254   33.5221    7.3733 H   0  0  0  0  0  0  0  0  0  0  0  0
    2.6822   31.8014    6.4333 H   0  0  0  0  0  0  0  0  0  0  0  0
    2.3544   29.3876    6.9552 H   0  0  0  0  0  0  0  0  0  0  0  0
    0.4733   28.6542    8.4359 H   0  0  0  0  0  0  0  0  0  0  0  0
  1  2  1  0
  2  3  1  0
  3  4  2  0
  4  5  1  0
  5  6  1  0
  6  7  1  0
  7  8  1  0
  8  9  1  0
  8 10  1  0
 10 11  2  0
 10 12  1  0
 12 13  1  0
 13 14  1  0
 14 15  1  0
 15 16  1  0
 16 17  2  0
 17 18  1  0
 18 19  2  0
 19 20  1  0
 20 21  2  0
  6  2  2  0
 21 13  1  0
 21 16  1  0
  1 22  1  0
  1 23  1  0
  1 24  1  0
  4 25  1  0
  7 26  1  0
  7 27  1  0
  9 28  1  0
  9 29  1  0
  9 30  1  0
 12 31  1  0
 13 32  1  6
 14 33  1  0
 14 34  1  0
 15 35  1  0
 15 36  1  0
 17 37  1  0
 18 38  1  0
 19 39  1  0
 20 40  1  0
M  END
>  <vina_affinity>  (1) 
-7.859

$$$$
dec_C18270801
     RDKit          3D

 50 53  0  0  0  0  0  0  0  0999 V2000
    4.8350   24.0130    7.8430 C   0  0  0  0  0  0  0  0  0  0  0  0
    6.1650   24.3290    7.4280 O   0  0  0  0  0  0  0  0  0  0  0  0
    6.4180   25.6620    7.3720 C   0  0  0  0  0  0  0  0  0  0  0  0
    7.0480   26.3150    8.1840 O   0  0  0  0  0  0  0  0  0  0  0  0
    5.7800   26.2100    6.1550 C   0  0  0  0  0  0  0  0  0  0  0  0
    6.1830   25.6800    4.9150 C   0  0  0  0  0  0  0  0  0  0  0  0
    5.6740   26.1990    3.7260 C   0  0  0  0  0  0  0  0  0  0  0  0
    4.7660   27.2510    3.7680 C   0  0  0  0  0  0  0  0  0  0  0  0
    4.3630   27.7800    4.9980 C   0  0  0  0  0  0  0  0  0  0  0  0
    4.8550   27.2690    6.2150 C   0  0  0  0  0  0  0  0  0  0  0  0
    4.3560   27.8380    7.4650 C   0  0  0  0  0  0  0  0  0  0  0  0
    4.6390   28.9590    8.2110 C   0  0  0  0  0  0  0  0  0  0  0  0
    3.7760   28.9220    9.3330 C   0  0  0  0  0  0  0  0  0  0  0  0
    2.9840   27.7870    9.2210 C   0  0  0  0  0  0  0  0  0  0  0  0
    1.9910   27.3090   10.1150 C   0  0  0  0  0  0  0  0  0  0  0  0
    0.7350   27.7790   10.2180 C   0  0  0  0  0  0  0  0  0  0  0  0
    0.0970   28.9310    9.5420 C   0  0  0  0  0  0  0  0  0  0  0  0
    0.7600   29.8600    8.5770 C   0  0  0  0  0  0  0  0  0  0  0  0
   -1.1750   29.0480    9.9770 C   0  0  0  0  0  0  0  0  0  0  0  0
   -2.1210   30.0250    9.5900 C   0  0  0  0  0  0  0  0  0  0  0  0
   -2.8660   30.8460    9.2420 N   0  0  0  0  0  0  0  0  0  0  0  0
   -1.4230   27.9910   10.9500 C   0  0  0  0  0  0  0  0  0  0  0  0
   -2.6020   27.8390   11.5740 N   0  0  0  0  0  0  0  0  0  0  0  0
   -2.6910   26.8220   12.4470 C   0  0  0  0  0  0  0  0  0  0  0  0
   -3.9300   26.6930   13.0850 N   0  0  0  0  0  0  0  0  0  0  0  0
   -1.6120   25.9470   12.6980 C   0  0  0  0  0  0  0  0  0  0  0  0
   -1.7970   24.8870   13.6460 C   0  0  0  0  0  0  0  0  0  0  0  0
   -1.9610   24.0350   14.4160 N   0  0  0  0  0  0  0  0  0  0  0  0
   -0.3750   26.1210   12.0200 C   0  0  0  0  0  0  0  0  0  0  0  0
    0.7800   25.1910   12.2580 C   0  0  0  0  0  0  0  0  0  0  0  0
   -0.2880   27.1930   11.1280 C   0  0  0  0  0  0  0  0  0  0  0  0
    3.3820   27.1160    8.0910 O   0  0  0  0  0  0  0  0  0  0  0  0
    4.7868   24.0015    8.9419 H   0  0  0  0  0  0  0  0  0  0  0  0
    4.1395   24.7709    7.4533 H   0  0  0  0  0  0  0  0  0  0  0  0
    4.5547   23.0233    7.4533 H   0  0  0  0  0  0  0  0  0  0  0  0
    6.9047   24.8504    4.8842 H   0  0  0  0  0  0  0  0  0  0  0  0
    5.9889   25.7786    2.7595 H   0  0  0  0  0  0  0  0  0  0  0  0
    4.3642   27.6676    2.8326 H   0  0  0  0  0  0  0  0  0  0  0  0
    3.6458   28.6138    5.0157 H   0  0  0  0  0  0  0  0  0  0  0  0
    5.3878   29.7314    7.9812 H   0  0  0  0  0  0  0  0  0  0  0  0
    3.7395   29.6603   10.1476 H   0  0  0  0  0  0  0  0  0  0  0  0
    2.2733   26.4814   10.7824 H   0  0  0  0  0  0  0  0  0  0  0  0
    1.3116   30.6329    9.1322 H   0  0  0  0  0  0  0  0  0  0  0  0
    1.4592   29.2937    7.9443 H   0  0  0  0  0  0  0  0  0  0  0  0
   -0.0029   30.3371    7.9443 H   0  0  0  0  0  0  0  0  0  0  0  0
   -4.6200   26.2640   12.4740 H   0  0  0  0  0  0  0  0  0  0  0  0
   -3.8590   26.1250   13.9250 H   0  0  0  0  0  0  0  0  0  0  0  0
    0.9340   25.0670   13.3401 H   0  0  0  0  0  0  0  0  0  0  0  0
    0.5627   24.2129   11.8041 H   0  0  0  0  0  0  0  0  0  0  0  0
    1.6893   25.6120   11.8041 H   0  0  0  0  0  0  0  0  0  0  0  0
  1  2  1  0
  2  3  1  0
  3  4  2  0
  3  5  1  0
  5  6  2  0
  6  7  1  0
  7  8  2  0
  8  9  1  0
  9 10  2  0
 10 11  1  0
 11 12  2  0
 12 13  1  0
 13 14  2  0
 14 15  1  0
 15 16  2  3
 16 17  1  0
 17 18  1  0
 17 19  2  0
 19 20  1  0
 20 21  3  0
 19 22  1  0
 22 23  2  0
 23 24  1  0
 24 25  1  0
 24 26  2  0
 26 27  1  0
 27 28  3  0
 26 29  1  0
 29 30  1  0
 29 31  2  0
 14 32  1  0
 10  5  1  0
 32 11  1  0
 31 16  1  0
 31 22  1  0
  1 33  1  0
  1 34  1  0
  1 35  1  0
  6 36  1  0
  7 37  1  0
  8 38  1  0
  9 39  1  0
 12 40  1  0
 13 41  1  0
 15 42  1  0
 18 43  1  0
 18 44  1  0
 18 45  1  0
 25 46  1  0
 25 47  1  0
 30 48  1  0
 30 49  1  0
 30 50  1  0
M  END
>  <vina_affinity>  (1) 
-9.516

$$$$
dec_C39982674
     RDKit          3D

 63 67  0  0  0  0  0  0  0  0999 V2000
    0.9590   18.7010   14.1030 C   0  0  0  0  0  0  0  0  0  0  0  0
    1.3640   20.1770   14.1020 C   0  0  0  0  0  0  0  0  0  0  0  0
    2.8170   20.3200   13.6360 C   0  0  0  0  0  0  0  0  0  0  0  0
    0.4040   21.1160   13.3130 C   0  0  2  0  0  0  0  0  0  0  0  0
    1.1320   22.1360   12.5620 N   0  0  0  0  0  0  0  0  0  0  0  0
    1.0470   22.2470   11.1950 C   0  0  0  0  0  0  0  0  0  0  0  0
    0.3590   21.5090   10.4930 O   0  0  0  0  0  0  0  0  0  0  0  0
    1.9350   23.3210   10.5910 C   0  0  0  0  0  0  0  0  0  0  0  0
    2.1870   24.6890   11.7690 S   0  0  0  0  0  0  0  0  0  0  0  0
    0.5780   25.5150   11.6460 C   0  0  1  0  0  0  0  0  0  0  0  0
    0.2670   26.3300   12.8070 N   0  0  0  0  0  0  0  0  0  0  0  0
   -0.1310   27.5570   12.3990 N   0  0  0  0  0  0  0  0  0  0  0  0
    0.1170   27.5680   11.1310 C   0  0  0  0  0  0  0  0  0  0  0  0
   -0.0620   28.7100   10.2500 C   0  0  0  0  0  0  0  0  0  0  0  0
    0.7670   29.2300    9.3360 C   0  0  0  0  0  0  0  0  0  0  0  0
    2.0770   28.9420    8.8410 C   0  0  0  0  0  0  0  0  0  0  0  0
    2.5910   29.7310    7.8820 C   0  0  0  0  0  0  0  0  0  0  0  0
    1.8550   30.8610    7.3370 C   0  0  0  0  0  0  0  0  0  0  0  0
    0.6210   31.2070    7.7460 C   0  0  0  0  0  0  0  0  0  0  0  0
    0.0070   30.3810    8.7980 C   0  0  0  0  0  0  0  0  0  0  0  0
   -1.1400   30.5200    9.3380 N   0  0  0  0  0  0  0  0  0  0  0  0
   -1.3490   29.4690   10.3480 C   0  0  0  0  0  0  0  0  0  0  0  0
    0.5730   26.4340   10.5550 O   0  0  0  0  0  0  0  0  0  0  0  0
   -0.7030   21.7550   14.1380 C   0  0  0  0  0  0  0  0  0  0  0  0
   -1.6870   21.0010   14.7980 C   0  0  0  0  0  0  0  0  0  0  0  0
   -2.7030   21.6300   15.5230 C   0  0  0  0  0  0  0  0  0  0  0  0
   -2.7370   23.0190   15.6280 C   0  0  0  0  0  0  0  0  0  0  0  0
   -1.7660   23.7850   14.9830 C   0  0  0  0  0  0  0  0  0  0  0  0
   -0.7660   23.1560   14.2360 C   0  0  0  0  0  0  0  0  0  0  0  0
   -1.7880   25.1510   14.9380 O   0  0  0  0  0  0  0  0  0  0  0  0
   -2.9190   25.6590   14.2320 C   0  0  0  0  0  0  0  0  0  0  0  0
   -4.1680   25.6920   15.0990 C   0  0  0  0  0  0  0  0  0  0  0  0
   -4.6810   24.2740   15.4060 C   0  0  0  0  0  0  0  0  0  0  0  0
   -3.8130   23.5540   16.2800 O   0  0  0  0  0  0  0  0  0  0  0  0
    0.8622   18.3481   15.1403 H   0  0  0  0  0  0  0  0  0  0  0  0
   -0.0042   18.5847   13.5847 H   0  0  0  0  0  0  0  0  0  0  0  0
    1.7280   18.1094   13.5847 H   0  0  0  0  0  0  0  0  0  0  0  0
    1.2778   20.5217   15.1430 H   0  0  0  0  0  0  0  0  0  0  0  0
    3.4784   20.3851   14.5125 H   0  0  0  0  0  0  0  0  0  0  0  0
    3.0957   19.4449   13.0305 H   0  0  0  0  0  0  0  0  0  0  0  0
    2.9197   21.2326   13.0305 H   0  0  0  0  0  0  0  0  0  0  0  0
   -0.1043   20.4391   12.6105 H   0  0  0  0  0  0  0  0  0  0  0  0
    1.7660   22.7390   13.0690 H   0  0  0  0  0  0  0  0  0  0  0  0
    2.9101   22.8810   10.3351 H   0  0  0  0  0  0  0  0  0  0  0  0
    1.4457   23.7175    9.6891 H   0  0  0  0  0  0  0  0  0  0  0  0
   -0.1511   24.6989   11.5344 H   0  0  0  0  0  0  0  0  0  0  0  0
   -0.4050   25.8490   13.4150 H   0  0  0  0  0  0  0  0  0  0  0  0
    2.6524   28.0922    9.2369 H   0  0  0  0  0  0  0  0  0  0  0  0
    3.5989   29.5156    7.4976 H   0  0  0  0  0  0  0  0  0  0  0  0
    2.3319   31.4636    6.5500 H   0  0  0  0  0  0  0  0  0  0  0  0
    0.0938   32.0698    7.3129 H   0  0  0  0  0  0  0  0  0  0  0  0
   -1.7860   31.2640    9.0830 H   0  0  0  0  0  0  0  0  0  0  0  0
   -1.4891   29.8968   11.3517 H   0  0  0  0  0  0  0  0  0  0  0  0
   -2.2476   28.8566   10.1824 H   0  0  0  0  0  0  0  0  0  0  0  0
   -1.6578   19.9027   14.7437 H   0  0  0  0  0  0  0  0  0  0  0  0
   -3.4800   21.0252   16.0134 H   0  0  0  0  0  0  0  0  0  0  0  0
   -0.0148   23.7682   13.7155 H   0  0  0  0  0  0  0  0  0  0  0  0
   -2.6955   26.6814   13.8931 H   0  0  0  0  0  0  0  0  0  0  0  0
   -3.1153   24.9900   13.3811 H   0  0  0  0  0  0  0  0  0  0  0  0
   -3.9320   26.1993   16.0461 H   0  0  0  0  0  0  0  0  0  0  0  0
   -4.9541   26.2314   14.5502 H   0  0  0  0  0  0  0  0  0  0  0  0
   -5.6712   24.3522   15.8786 H   0  0  0  0  0  0  0  0  0  0  0  0
   -4.7279   23.7234   14.4549 H   0  0  0  0  0  0  0  0  0  0  0  0
  1  2  1  0
  2  3  1  0
  2  4  1  0
  4  5  1  0
  5  6  1  0
  6  7  2  0
  6  8  1  0
  8  9  1  0
  9 10  1  0
 10 11  1  0
 11 12  1  0
 12 13  2  0
 13 14  1  0
 14 15  2  0
 15 16  1  0
 16 17  2  0
 17 18  1  0
 18 19  2  0
 19 20  1  0
 20 21  2  0
 21 22  1  0
 13 23  1  0
  4 24  1  0
 24 25  2  0
 25 26  1  0
 26 27  2  0
 27 28  1  0
 28 29  2  0
 28 30  1  0
 30 31  1  0
 31 32  1  0
 32 33  1  0
 33 34  1  0
 23 10  1  0
 29 24  1  0
 22 14  1  0
 34 27  1  0
 20 15  1  0
  1 35  1  0
  1 36  1  0
  1 37  1  0
  2 38  1  0
  3 39  1  0
  3 40  1  0
  3 41  1  0
  4 42  1  6
  5 43  1  0
  8 44  1  0
  8 45  1  0
 10 46  1  6
 11 47  1  0
 16 48  1  0
 17 49  1  0
 18 50  1  0
 19 51  1  0
 21 52  1  0
 22 53  1  0
 22 54  1  0
 25 55  1  0
 26 56  1  0
 29 57  1  0
 31 58  1  0
 31 59  1  0
 32 60  1  0
 32 61  1  0
 33 62  1  0
 33 63  1  0
M  CHG  1  21   1
M  END
>  <vina_affinity>  (1) 
-7.013

$$$$
dec_C38966155
     RDKit          3D

 45 47  0  0  0  0  0  0  0  0999 V2000
    0.7060   24.3100   10.8360 C   0  0  0  0  0  0  0  0  0  0  0  0
   -0.2610   24.3640   12.0170 C   0  0  0  0  0  0  0  0  0  0  0  0
   -0.7700   22.9620   12.3370 C   0  0  0  0  0  0  0  0  0  0  0  0
   -1.3500   25.2070   11.6160 O   0  0  0  0  0  0  0  0  0  0  0  0
   -1.2910   26.5470   11.8600 C   0  0  0  0  0  0  0  0  0  0  0  0
   -0.7550   27.1680   12.9820 C   0  0  0  0  0  0  0  0  0  0  0  0
   -0.7700   28.5610   13.0860 C   0  0  0  0  0  0  0  0  0  0  0  0
   -1.3150   29.3420   12.0660 C   0  0  0  0  0  0  0  0  0  0  0  0
   -1.8570   28.7380   10.9210 C   0  0  0  0  0  0  0  0  0  0  0  0
   -2.4300   29.5970    9.8180 C   0  0  1  0  0  0  0  0  0  0  0  0
   -3.2350   30.6780   10.3710 N   0  0  0  0  0  0  0  0  0  0  0  0
   -2.8220   31.9250   10.1000 N   0  0  0  0  0  0  0  0  0  0  0  0
   -1.6610   31.6890    9.3580 C   0  0  0  0  0  0  0  0  0  0  0  0
   -0.6080   32.9360    8.9610 S   0  0  0  0  0  0  0  0  0  0  0  0
   -1.4930   30.3300    9.0260 N   0  0  0  0  0  0  0  0  0  0  0  0
   -0.3340   29.7300    8.6030 N   0  0  0  0  0  0  0  0  0  0  0  0
    0.6640   29.6930    9.4350 C   0  0  0  0  0  0  0  0  0  0  0  0
    1.9430   29.0420    9.0790 C   0  0  0  0  0  0  0  0  0  0  0  0
    2.2560   27.8310    9.7110 C   0  0  0  0  0  0  0  0  0  0  0  0
    3.4570   27.1790    9.4180 C   0  0  0  0  0  0  0  0  0  0  0  0
    4.3350   27.7430    8.4970 C   0  0  0  0  0  0  0  0  0  0  0  0
    5.5180   27.1420    8.1830 O   0  0  0  0  0  0  0  0  0  0  0  0
    4.0340   28.9430    7.8620 C   0  0  0  0  0  0  0  0  0  0  0  0
    2.8360   29.5910    8.1510 C   0  0  0  0  0  0  0  0  0  0  0  0
    2.6050   30.7640    7.4860 O   0  0  0  0  0  0  0  0  0  0  0  0
   -1.8370   27.3330   10.8390 C   0  0  0  0  0  0  0  0  0  0  0  0
    1.7388   24.2523   11.2101 H   0  0  0  0  0  0  0  0  0  0  0  0
    0.4877   23.4226   10.2237 H   0  0  0  0  0  0  0  0  0  0  0  0
    0.5879   25.2161   10.2237 H   0  0  0  0  0  0  0  0  0  0  0  0
    0.2310   24.7564   12.9192 H   0  0  0  0  0  0  0  0  0  0  0  0
   -0.8181   22.8295   13.4279 H   0  0  0  0  0  0  0  0  0  0  0  0
   -1.7737   22.8293   11.9069 H   0  0  0  0  0  0  0  0  0  0  0  0
   -0.0852   22.2163   11.9069 H   0  0  0  0  0  0  0  0  0  0  0  0
   -0.3183   26.5617   13.7893 H   0  0  0  0  0  0  0  0  0  0  0  0
   -0.3489   29.0461   13.9790 H   0  0  0  0  0  0  0  0  0  0  0  0
   -1.3198   30.4380   12.1600 H   0  0  0  0  0  0  0  0  0  0  0  0
   -2.9573   28.8466    9.2107 H   0  0  0  0  0  0  0  0  0  0  0  0
   -4.0560   30.5140   10.9570 H   0  0  0  0  0  0  0  0  0  0  0  0
    0.5546   30.1566   10.4265 H   0  0  0  0  0  0  0  0  0  0  0  0
    1.5561   27.3934   10.4381 H   0  0  0  0  0  0  0  0  0  0  0  0
    3.7063   26.2279    9.9112 H   0  0  0  0  0  0  0  0  0  0  0  0
    5.7240   27.3010    7.2460 H   0  0  0  0  0  0  0  0  0  0  0  0
    4.7375   29.3773    7.1364 H   0  0  0  0  0  0  0  0  0  0  0  0
    3.3730   30.9450    6.9120 H   0  0  0  0  0  0  0  0  0  0  0  0
   -2.2607   26.8410    9.9511 H   0  0  0  0  0  0  0  0  0  0  0  0
  1  2  1  0
  2  3  1  0
  2  4  1  0
  4  5  1  0
  5  6  2  0
  6  7  1  0
  7  8  2  0
  8  9  1  0
  9 10  1  0
 10 11  1  0
 11 12  2  0
 12 13  1  0
 13 14  2  0
 13 15  1  0
 15 16  1  0
 16 17  2  0
 17 18  1  0
 18 19  2  0
 19 20  1  0
 20 21  2  0
 21 22  1  0
 21 23  1  0
 23 24  2  0
 24 25  1  0
  9 26  2  0
 26  5  1  0
 15 10  1  0
 24 18  1  0
  1 27  1  0
  1 28  1  0
  1 29  1  0
  2 30  1  0
  3 31  1  0
  3 32  1  0
  3 33  1  0
  6 34  1  0
  7 35  1  0
  8 36  1  0
 10 37  1  6
 11 38  1  0
 17 39  1  0
 19 40  1  0
 20 41  1  0
 22 42  1  0
 23 43  1  0
 25 44  1  0
 26 45  1  0
M  CHG  1  11   1
M  END
>  <vina_affinity>  (1) 
-8.100

$$$$
dec_C12531474
     RDKit          3D

 86 89  0  0  0  0  0  0  0  0999 V2000
    3.5110   26.0610    3.7110 C   0  0  0  0  0  0  0  0  0  0  0  0
    4.7730   26.7440    4.2600 C   0  0  0  0  0  0  0  0  0  0  0  0
    5.3800   27.5750    3.1120 C   0  0  0  0  0  0  0  0  0  0  0  0
    4.4050   27.6680    5.4340 C   0  0  0  0  0  0  0  0  0  0  0  0
    4.4440   26.7400    6.6400 C   0  0  2  0  0  0  0  0  0  0  0  0
    4.4760   27.4890    7.9300 N   0  0  0  0  0  0  0  0  0  0  0  0
    4.4250   28.9830    7.8080 C   0  0  0  0  0  0  0  0  0  0  0  0
    3.1180   29.5260    8.4040 C   0  0  0  0  0  0  0  0  0  0  0  0
    2.3540   28.4680    9.2200 C   0  0  0  0  0  0  0  0  0  0  0  0
    1.0130   28.9940    9.7270 C   0  0  0  0  0  0  0  0  0  0  0  0
    0.1510   29.5370    8.5930 C   0  0  0  0  0  0  0  0  0  0  0  0
    0.8960   30.5960    7.7880 C   0  0  0  0  0  0  0  0  0  0  0  0
    2.2310   30.0690    7.2690 C   0  0  0  0  0  0  0  0  0  0  0  0
    5.6750   25.8010    6.4340 C   0  0  1  0  0  0  0  0  0  0  0  0
    6.9980   26.2430    7.1720 C   0  0  0  0  0  0  0  0  0  0  0  0
    8.1310   25.2280    7.3970 C   0  0  0  0  0  0  0  0  0  0  0  0
    9.3710   25.4640    6.5460 C   0  0  0  0  0  0  0  0  0  0  0  0
   10.4570   24.9500    6.7820 O   0  0  0  0  0  0  0  0  0  0  0  0
    9.1430   26.3170    5.4900 N   0  0  0  0  0  0  0  0  0  0  0  0
   10.1540   26.5090    4.4610 C   0  0  0  0  0  0  0  0  0  0  0  0
    9.7610   25.8020    3.1490 C   0  0  0  0  0  0  0  0  0  0  0  0
    8.6110   26.4390    2.4620 N   0  0  0  0  0  0  0  0  0  0  0  0
    8.1060   25.5740    1.3660 C   0  0  0  0  0  0  0  0  0  0  0  0
    8.6020   25.9840   -0.0290 C   0  0  0  0  0  0  0  0  0  0  0  0
    8.2100   27.3160   -0.3840 O   0  0  0  0  0  0  0  0  0  0  0  0
    8.0860   28.1900    0.7450 C   0  0  0  0  0  0  0  0  0  0  0  0
    8.9800   27.7730    1.9230 C   0  0  0  0  0  0  0  0  0  0  0  0
    5.3310   24.4030    7.0220 C   0  0  0  0  0  0  0  0  0  0  0  0
    4.5020   23.5310    6.0880 C   0  0  0  0  0  0  0  0  0  0  0  0
    5.2870   23.1980    4.8170 C   0  0  2  0  0  0  0  0  0  0  0  0
    4.3920   22.5020    3.7880 C   0  0  0  0  0  0  0  0  0  0  0  0
    6.3030   22.2570    5.1970 O   0  0  0  0  0  0  0  0  0  0  0  0
    6.0280   24.4080    4.2100 C   0  0  0  0  0  0  0  0  0  0  0  0
    5.8510   25.7850    4.8770 C   0  0  1  0  0  0  0  0  0  0  0  0
    2.8839   25.7216    4.5486 H   0  0  0  0  0  0  0  0  0  0  0  0
    2.9453   26.7761    3.0957 H   0  0  0  0  0  0  0  0  0  0  0  0
    3.8003   25.1963    3.0957 H   0  0  0  0  0  0  0  0  0  0  0  0
    5.9799   28.3962    3.5312 H   0  0  0  0  0  0  0  0  0  0  0  0
    6.0219   26.9311    2.4928 H   0  0  0  0  0  0  0  0  0  0  0  0
    4.5713   27.9906    2.4928 H   0  0  0  0  0  0  0  0  0  0  0  0
    5.1381   28.4813    5.5394 H   0  0  0  0  0  0  0  0  0  0  0  0
    3.4303   28.1608    5.3031 H   0  0  0  0  0  0  0  0  0  0  0  0
    3.5240   26.1410    6.7099 H   0  0  0  0  0  0  0  0  0  0  0  0
    3.6650   27.1880    8.4860 H   0  0  0  0  0  0  0  0  0  0  0  0
    5.3070   27.2280    8.4750 H   0  0  0  0  0  0  0  0  0  0  0  0
    5.2781   29.4198    8.3478 H   0  0  0  0  0  0  0  0  0  0  0  0
    4.4710   29.2552    6.7432 H   0  0  0  0  0  0  0  0  0  0  0  0
    3.3782   30.3344    9.1031 H   0  0  0  0  0  0  0  0  0  0  0  0
    2.1728   27.5904    8.5821 H   0  0  0  0  0  0  0  0  0  0  0  0
    2.9679   28.2051   10.0941 H   0  0  0  0  0  0  0  0  0  0  0  0
    0.4734   28.1735   10.2226 H   0  0  0  0  0  0  0  0  0  0  0  0
    1.2125   29.8175   10.4285 H   0  0  0  0  0  0  0  0  0  0  0  0
   -0.1256   28.7081    7.9249 H   0  0  0  0  0  0  0  0  0  0  0  0
   -0.7455   30.0007    9.0303 H   0  0  0  0  0  0  0  0  0  0  0  0
    0.2740   30.8975    6.9323 H   0  0  0  0  0  0  0  0  0  0  0  0
    1.0967   31.4528    8.4480 H   0  0  0  0  0  0  0  0  0  0  0  0
    2.0377   29.2585    6.5508 H   0  0  0  0  0  0  0  0  0  0  0  0
    2.7637   30.9050    6.7922 H   0  0  0  0  0  0  0  0  0  0  0  0
    7.4255   27.0712    6.5877 H   0  0  0  0  0  0  0  0  0  0  0  0
    6.6543   26.4672    8.1926 H   0  0  0  0  0  0  0  0  0  0  0  0
    8.4274   25.2735    8.4553 H   0  0  0  0  0  0  0  0  0  0  0  0
    7.7329   24.2458    7.1025 H   0  0  0  0  0  0  0  0  0  0  0  0
    8.1920   26.4560    5.1770 H   0  0  0  0  0  0  0  0  0  0  0  0
   10.2678   27.5858    4.2673 H   0  0  0  0  0  0  0  0  0  0  0  0
   11.0994   26.0752    4.8188 H   0  0  0  0  0  0  0  0  0  0  0  0
   10.6264   25.8190    2.4702 H   0  0  0  0  0  0  0  0  0  0  0  0
    9.4587   24.7768    3.4088 H   0  0  0  0  0  0  0  0  0  0  0  0
    8.4332   24.5420    1.5605 H   0  0  0  0  0  0  0  0  0  0  0  0
    7.0107   25.6752    1.3581 H   0  0  0  0  0  0  0  0  0  0  0  0
    9.7003   25.9242   -0.0440 H   0  0  0  0  0  0  0  0  0  0  0  0
    8.1482   25.2975   -0.7589 H   0  0  0  0  0  0  0  0  0  0  0  0
    8.3663   29.2073    0.4342 H   0  0  0  0  0  0  0  0  0  0  0  0
    7.0421   28.1408    1.0883 H   0  0  0  0  0  0  0  0  0  0  0  0
   10.0248   27.7402    1.5806 H   0  0  0  0  0  0  0  0  0  0  0  0
    8.8455   28.5114    2.7272 H   0  0  0  0  0  0  0  0  0  0  0  0
    6.2723   23.8781    7.2423 H   0  0  0  0  0  0  0  0  0  0  0  0
    4.7241   24.5747    7.9232 H   0  0  0  0  0  0  0  0  0  0  0  0
    4.2396   22.5963    6.6052 H   0  0  0  0  0  0  0  0  0  0  0  0
    3.5919   24.0811    5.8067 H   0  0  0  0  0  0  0  0  0  0  0  0
    3.6275   21.9075    4.3095 H   0  0  0  0  0  0  0  0  0  0  0  0
    3.9014   23.2583    3.1576 H   0  0  0  0  0  0  0  0  0  0  0  0
    5.0041   21.8403    3.1576 H   0  0  0  0  0  0  0  0  0  0  0  0
    6.9900   22.2320    4.5080 H   0  0  0  0  0  0  0  0  0  0  0  0
    7.1026   24.1737    4.2278 H   0  0  0  0  0  0  0  0  0  0  0  0
    5.5767   24.5298    3.2142 H   0  0  0  0  0  0  0  0  0  0  0  0
    6.8475   26.1820    4.6333 H   0  0  0  0  0  0  0  0  0  0  0  0
  1  2  1  0
  2  3  1  0
  2  4  1  0
  4  5  1  0
  5  6  1  0
  6  7  1  0
  7  8  1  0
  8  9  1  0
  9 10  1  0
 10 11  1  0
 11 12  1  0
 12 13  1  0
  5 14  1  0
 14 15  1  1
 15 16  1  0
 16 17  1  0
 17 18  2  0
 17 19  1  0
 19 20  1  0
 20 21  1  0
 21 22  1  0
 22 23  1  0
 23 24  1  0
 24 25  1  0
 25 26  1  0
 26 27  1  0
 14 28  1  0
 28 29  1  0
 29 30  1  0
 30 31  1  0
 30 32  1  1
 30 33  1  0
 33 34  1  0
 34  2  1  0
 13  8  1  0
 34 14  1  0
 27 22  1  0
  1 35  1  0
  1 36  1  0
  1 37  1  0
  3 38  1  0
  3 39  1  0
  3 40  1  0
  4 41  1  0
  4 42  1  0
  5 43  1  1
  6 44  1  0
  6 45  1  0
  7 46  1  0
  7 47  1  0
  8 48  1  0
  9 49  1  0
  9 50  1  0
 10 51  1  0
 10 52  1  0
 11 53  1  0
 11 54  1  0
 12 55  1  0
 12 56  1  0
 13 57  1  0
 13 58  1  0
 15 59  1  0
 15 60  1  0
 16 61  1  0
 16 62  1  0
 19 63  1  0
 20 64  1  0
 20 65  1  0
 21 66  1  0
 21 67  1  0
 23 68  1  0
 23 69  1  0
 24 70  1  0
 24 71  1  0
 26 72  1  0
 26 73  1  0
 27 74  1  0
 27 75  1  0
 28 76  1  0
 28 77  1  0
 29 78  1  0
 29 79  1  0
 31 80  1  0
 31 81  1  0
 31 82  1  0
 32 83  1  0
 33 84  1  0
 33 85  1  0
 34 86  1  1
M  CHG  1   6   1
M  END
>  <vina_affinity>  (1) 
-7.185

$$$$
dec_C03290783
     RDKit          3D

 50 51  0  0  0  0  0  0  0  0999 V2000
    1.4800   31.6150    6.7110 C   0  0  0  0  0  0  0  0  0  0  0  0
    1.3220   30.5240    7.7280 C   0  0  0  0  0  0  0  0  0  0  0  0
    0.0690   30.2440    8.2780 C   0  0  0  0  0  0  0  0  0  0  0  0
   -0.0900   29.2090    9.2060 C   0  0  0  0  0  0  0  0  0  0  0  0
    1.0010   28.4200    9.6060 C   0  0  0  0  0  0  0  0  0  0  0  0
    0.8610   27.2640   10.5940 C   0  0  2  0  0  0  0  0  0  0  0  0
    2.1910   26.8250   11.2100 C   0  0  0  0  0  0  0  0  0  0  0  0
    0.1990   26.1480    9.9380 N   0  0  0  0  0  0  0  0  0  0  0  0
   -1.0510   25.9210   10.4520 C   0  0  0  0  0  0  0  0  0  0  0  0
   -1.8950   25.1930    9.9520 O   0  0  0  0  0  0  0  0  0  0  0  0
   -1.2200   26.6830   11.5620 N   0  0  0  0  0  0  0  0  0  0  0  0
   -2.4330   26.6910   12.3440 C   0  0  0  0  0  0  0  0  0  0  0  0
   -2.1210   26.0190   13.6780 C   0  0  0  0  0  0  0  0  0  0  0  0
   -1.8800   26.6540   14.7020 O   0  0  0  0  0  0  0  0  0  0  0  0
   -2.2920   24.6530   13.6740 N   0  0  0  0  0  0  0  0  0  0  0  0
   -1.1920   23.9070   13.3400 C   0  0  0  0  0  0  0  0  0  0  0  0
   -0.0820   24.3700   13.1230 O   0  0  0  0  0  0  0  0  0  0  0  0
   -1.5200   22.5730   13.2410 N   0  0  0  0  0  0  0  0  0  0  0  0
   -0.5480   21.5030   12.9520 C   0  0  0  0  0  0  0  0  0  0  0  0
   -1.3210   20.1720   12.8920 C   0  0  0  0  0  0  0  0  0  0  0  0
    0.5070   21.4090   14.0630 C   0  0  0  0  0  0  0  0  0  0  0  0
    0.1320   21.7190   11.5900 C   0  0  0  0  0  0  0  0  0  0  0  0
   -0.1480   27.5090   11.7440 C   0  0  0  0  0  0  0  0  0  0  0  0
   -0.0110   28.3110   12.6590 O   0  0  0  0  0  0  0  0  0  0  0  0
    2.2530   28.6980    9.0240 C   0  0  0  0  0  0  0  0  0  0  0  0
    2.4110   29.7330    8.0980 C   0  0  0  0  0  0  0  0  0  0  0  0
    1.6194   32.5777    7.2246 H   0  0  0  0  0  0  0  0  0  0  0  0
    2.3571   31.4050    6.0812 H   0  0  0  0  0  0  0  0  0  0  0  0
    0.5794   31.6625    6.0812 H   0  0  0  0  0  0  0  0  0  0  0  0
   -0.8028   30.8441    7.9781 H   0  0  0  0  0  0  0  0  0  0  0  0
   -1.0856   29.0100    9.6292 H   0  0  0  0  0  0  0  0  0  0  0  0
    2.1132   26.8507   12.3069 H   0  0  0  0  0  0  0  0  0  0  0  0
    2.4265   25.8015   10.8830 H   0  0  0  0  0  0  0  0  0  0  0  0
    2.9895   27.5072   10.8830 H   0  0  0  0  0  0  0  0  0  0  0  0
    0.4210   25.8320    9.0050 H   0  0  0  0  0  0  0  0  0  0  0  0
   -2.7644   27.7262   12.5130 H   0  0  0  0  0  0  0  0  0  0  0  0
   -3.2373   26.1555   11.8183 H   0  0  0  0  0  0  0  0  0  0  0  0
   -3.0680   24.3480   13.0890 H   0  0  0  0  0  0  0  0  0  0  0  0
   -2.2840   22.3110   13.8520 H   0  0  0  0  0  0  0  0  0  0  0  0
   -1.5253   19.8202   13.9140 H   0  0  0  0  0  0  0  0  0  0  0  0
   -2.2715   20.3237   12.3596 H   0  0  0  0  0  0  0  0  0  0  0  0
   -0.7182   19.4216   12.3596 H   0  0  0  0  0  0  0  0  0  0  0  0
    0.0113   21.4532   15.0440 H   0  0  0  0  0  0  0  0  0  0  0  0
    1.0531   20.4586   13.9706 H   0  0  0  0  0  0  0  0  0  0  0  0
    1.2126   22.2478   13.9706 H   0  0  0  0  0  0  0  0  0  0  0  0
    1.1697   22.0486   11.7464 H   0  0  0  0  0  0  0  0  0  0  0  0
    0.1283   20.7755   11.0246 H   0  0  0  0  0  0  0  0  0  0  0  0
   -0.4155   22.4874   11.0246 H   0  0  0  0  0  0  0  0  0  0  0  0
    3.1245   28.0880    9.3040 H   0  0  0  0  0  0  0  0  0  0  0  0
    3.4005   29.9256    7.6577 H   0  0  0  0  0  0  0  0  0  0  0  0
  1  2  1  0
  2  3  2  0
  3  4  1  0
  4  5  2  0
  5  6  1  0
  6  7  1  1
  6  8  1  0
  8  9  1  0
  9 10  2  0
  9 11  1  0
 11 12  1  0
 12 13  1  0
 13 14  2  0
 13 15  1  0
 15 16  1  0
 16 17  2  0
 16 18  1  0
 18 19  1  0
 19 20  1  0
 19 21  1  0
 19 22  1  0
 11 23  1  0
 23 24  2  0
  5 25  1  0
 25 26  2  0
 26  2  1  0
 23  6  1  0
  1 27  1  0
  1 28  1  0
  1 29  1  0
  3 30  1  0
  4 31  1  0
  7 32  1  0
  7 33  1  0
  7 34  1  0
  8 35  1  0
 12 36  1  0
 12 37  1  0
 15 38  1  0
 18 39  1  0
 20 40  1  0
 20 41  1  0
 20 42  1  0
 21 43  1  0
 21 44  1  0
 21 45  1  0
 22 46  1  0
 22 47  1  0
 22 48  1  0
 25 49  1  0
 26 50  1  0
M  END
>  <vina_affinity>  (1) 
-8.102

$$$$
dec_C44460421
     RDKit          3D

 54 57  0  0  0  0  0  0  0  0999 V2000
   -1.1470   28.6360    8.4560 C   0  0  0  0  0  0  0  0  0  0  0  0
   -0.5570   30.0090    8.9090 C   0  0  2  0  0  0  0  0  0  0  0  0
    0.0940   30.6710    7.6700 C   0  0  0  0  0  0  0  0  0  0  0  0
    1.6450   30.5990    7.6620 C   0  0  2  0  0  0  0  0  0  0  0  0
    2.0690   30.8890    6.3380 O   0  0  0  0  0  0  0  0  0  0  0  0
    2.1310   29.2140    8.1740 C   0  0  2  0  0  0  0  0  0  0  0  0
    1.7720   29.1260    9.7020 C   0  0  2  0  0  0  0  0  0  0  0  0
    1.9180   27.6930   10.2130 C   0  0  0  0  0  0  0  0  0  0  0  0
    3.3550   27.2090   10.0030 C   0  0  0  0  0  0  0  0  0  0  0  0
    3.7820   27.3600    8.5620 C   0  0  0  0  0  0  0  0  0  0  0  0
    4.2120   26.2740    7.8940 C   0  0  0  0  0  0  0  0  0  0  0  0
    4.5600   26.3180    6.4620 C   0  0  0  0  0  0  0  0  0  0  0  0
    4.9750   25.3260    5.8750 O   0  0  0  0  0  0  0  0  0  0  0  0
    4.3750   27.6020    5.7670 C   0  0  0  0  0  0  0  0  0  0  0  0
    3.9500   28.6860    6.4270 C   0  0  0  0  0  0  0  0  0  0  0  0
    3.6190   28.7580    7.9160 C   0  0  1  0  0  0  0  0  0  0  0  0
    4.6430   29.7400    8.5230 C   0  0  0  0  0  0  0  0  0  0  0  0
    0.4650   29.8590   10.0480 C   0  0  2  0  0  0  0  0  0  0  0  0
   -0.3780   29.4290   11.2450 C   0  0  0  0  0  0  0  0  0  0  0  0
   -1.7290   30.1500   11.0440 C   0  0  0  0  0  0  0  0  0  0  0  0
   -1.6750   30.8280    9.6440 C   0  0  2  0  0  0  0  0  0  0  0  0
   -2.9110   30.6590    8.9560 O   0  0  0  0  0  0  0  0  0  0  0  0
   -1.3970   32.3550    9.8370 C   0  0  0  0  0  0  0  0  0  0  0  0
   -0.9120   33.0750    8.9600 O   0  0  0  0  0  0  0  0  0  0  0  0
   -1.6530   32.9410   11.2310 C   0  0  0  0  0  0  0  0  0  0  0  0
   -3.0200   33.0660   11.5780 O   0  0  0  0  0  0  0  0  0  0  0  0
   -1.4043   28.0372    9.3421 H   0  0  0  0  0  0  0  0  0  0  0  0
   -2.0513   28.8064    7.8534 H   0  0  0  0  0  0  0  0  0  0  0  0
   -0.4010   28.0972    7.8534 H   0  0  0  0  0  0  0  0  0  0  0  0
   -0.2812   30.1639    6.7688 H   0  0  0  0  0  0  0  0  0  0  0  0
   -0.1766   31.7368    7.6975 H   0  0  0  0  0  0  0  0  0  0  0  0
    2.0902   31.3343    8.3484 H   0  0  0  0  0  0  0  0  0  0  0  0
    2.7570   30.2420    6.1060 H   0  0  0  0  0  0  0  0  0  0  0  0
    1.5981   28.4907    7.5393 H   0  0  0  0  0  0  0  0  0  0  0  0
    2.5122   29.6960   10.2827 H   0  0  0  0  0  0  0  0  0  0  0  0
    1.6756   27.6617   11.2855 H   0  0  0  0  0  0  0  0  0  0  0  0
    1.2305   27.0385    9.6572 H   0  0  0  0  0  0  0  0  0  0  0  0
    4.0288   27.8009   10.6399 H   0  0  0  0  0  0  0  0  0  0  0  0
    3.4036   26.1427   10.2687 H   0  0  0  0  0  0  0  0  0  0  0  0
    4.3071   25.3208    8.4348 H   0  0  0  0  0  0  0  0  0  0  0  0
    4.5890   27.6717    4.6903 H   0  0  0  0  0  0  0  0  0  0  0  0
    3.8279   29.6102    5.8431 H   0  0  0  0  0  0  0  0  0  0  0  0
    4.5919   29.6910    9.6207 H   0  0  0  0  0  0  0  0  0  0  0  0
    5.6552   29.4663    8.1905 H   0  0  0  0  0  0  0  0  0  0  0  0
    4.4119   30.7627    8.1905 H   0  0  0  0  0  0  0  0  0  0  0  0
    0.9846   30.7940   10.3045 H   0  0  0  0  0  0  0  0  0  0  0  0
   -0.5166   28.3378   11.2513 H   0  0  0  0  0  0  0  0  0  0  0  0
    0.0951   29.6859   12.2043 H   0  0  0  0  0  0  0  0  0  0  0  0
   -2.5546   29.4240   11.0812 H   0  0  0  0  0  0  0  0  0  0  0  0
   -1.9001   30.8942   11.8358 H   0  0  0  0  0  0  0  0  0  0  0  0
   -3.2020   31.5400    8.6410 H   0  0  0  0  0  0  0  0  0  0  0  0
   -1.1698   32.2869   11.9717 H   0  0  0  0  0  0  0  0  0  0  0  0
   -1.2406   33.9607   11.2200 H   0  0  0  0  0  0  0  0  0  0  0  0
   -3.1530   33.9880   11.8700 H   0  0  0  0  0  0  0  0  0  0  0  0
  2  1  1  6
  2  3  1  0
  3  4  1  0
  4  5  1  0
  4  6  1  0
  6  7  1  0
  7  8  1  0
  8  9  1  0
  9 10  1  0
 10 11  2  0
 11 12  1  0
 12 13  2  0
 12 14  1  0
 14 15  2  0
 15 16  1  0
 16 17  1  1
  7 18  1  0
 18 19  1  0
 19 20  1  0
 20 21  1  0
 21 22  1  6
 21 23  1  0
 23 24  2  0
 23 25  1  0
 25 26  1  0
 18  2  1  0
 21  2  1  0
 16  6  1  0
 16 10  1  0
  1 27  1  0
  1 28  1  0
  1 29  1  0
  3 30  1  0
  3 31  1  0
  4 32  1  1
  5 33  1  0
  6 34  1  6
  7 35  1  1
  8 36  1  0
  8 37  1  0
  9 38  1  0
  9 39  1  0
 11 40  1  0
 14 41  1  0
 15 42  1  0
 17 43  1  0
 17 44  1  0
 17 45  1  0
 18 46  1  1
 19 47  1  0
 19 48  1  0
 20 49  1  0
 20 50  1  0
 22 51  1  0
 25 52  1  0
 25 53  1  0
 26 54  1  0
M  END
>  <vina_affinity>  (1) 
-7.619

$$$$
dec_C64683667
     RDKit          3D

 58 61  0  0  0  0  0  0  0  0999 V2000
    5.7230   26.4180    7.8350 C   0  0  0  0  0  0  0  0  0  0  0  0
    5.6050   27.7950    8.1840 O   0  0  0  0  0  0  0  0  0  0  0  0
    4.3420   28.2500    8.4380 C   0  0  0  0  0  0  0  0  0  0  0  0
    3.7460   29.3590    7.8460 C   0  0  0  0  0  0  0  0  0  0  0  0
    2.4230   29.6910    8.1590 C   0  0  0  0  0  0  0  0  0  0  0  0
    1.6710   28.9250    9.0670 C   0  0  0  0  0  0  0  0  0  0  0  0
    0.2320   29.3140    9.3230 C   0  0  1  0  0  0  0  0  0  0  0  0
   -0.0830   30.0250   10.6190 C   0  0  0  0  0  0  0  0  0  0  0  0
   -1.5160   30.4480   10.3760 C   0  0  2  0  0  0  0  0  0  0  0  0
   -2.5850   29.3800   10.6660 C   0  0  0  0  0  0  0  0  0  0  0  0
   -2.4460   28.7360   11.9600 N   0  0  0  0  0  0  0  0  0  0  0  0
   -2.3410   27.3730   12.0770 C   0  0  0  0  0  0  0  0  0  0  0  0
   -2.2110   26.6180   11.1200 O   0  0  0  0  0  0  0  0  0  0  0  0
   -2.2780   26.9790   13.3770 N   0  0  0  0  0  0  0  0  0  0  0  0
   -2.5640   25.5930   13.8190 C   0  0  1  0  0  0  0  0  0  0  0  0
   -1.3980   24.9560   14.5870 C   0  0  0  0  0  0  0  0  0  0  0  0
   -0.7510   23.8440   13.8190 C   0  0  0  0  0  0  0  0  0  0  0  0
    0.1660   23.9550   12.8490 C   0  0  0  0  0  0  0  0  0  0  0  0
    0.8100   25.0460   12.1880 C   0  0  0  0  0  0  0  0  0  0  0  0
    1.7510   24.7690   11.2690 C   0  0  0  0  0  0  0  0  0  0  0  0
    2.1290   23.4000   10.9430 C   0  0  0  0  0  0  0  0  0  0  0  0
    1.5830   22.3220   11.5360 C   0  0  0  0  0  0  0  0  0  0  0  0
    0.5490   22.5650   12.5530 C   0  0  0  0  0  0  0  0  0  0  0  0
   -0.0930   21.7170   13.2560 N   0  0  0  0  0  0  0  0  0  0  0  0
   -1.0360   22.4100   14.1460 C   0  0  0  0  0  0  0  0  0  0  0  0
   -3.8040   25.5700   14.7670 C   0  0  0  0  0  0  0  0  0  0  0  0
   -3.4980   25.7360   15.9880 O   0  0  0  0  0  0  0  0  0  0  0  0
   -4.9230   25.4040   14.2120 O   0  0  0  0  0  0  0  0  0  0  0  0
   -1.5530   30.7610    8.9660 O   0  0  0  0  0  0  0  0  0  0  0  0
   -0.3010   30.2750    8.3520 N   0  0  0  0  0  0  0  0  0  0  0  0
    2.2940   27.8260    9.6730 C   0  0  0  0  0  0  0  0  0  0  0  0
    3.6120   27.4870    9.3500 C   0  0  0  0  0  0  0  0  0  0  0  0
    5.7750   25.8108    8.7508 H   0  0  0  0  0  0  0  0  0  0  0  0
    4.8476   26.1136    7.2425 H   0  0  0  0  0  0  0  0  0  0  0  0
    6.6374   26.2670    7.2425 H   0  0  0  0  0  0  0  0  0  0  0  0
    4.3140   29.9742    7.1327 H   0  0  0  0  0  0  0  0  0  0  0  0
    1.9618   30.5698    7.6846 H   0  0  0  0  0  0  0  0  0  0  0  0
   -0.2083   28.3064    9.2928 H   0  0  0  0  0  0  0  0  0  0  0  0
   -0.0027   29.3470   11.4815 H   0  0  0  0  0  0  0  0  0  0  0  0
    0.5997   30.8535   10.8590 H   0  0  0  0  0  0  0  0  0  0  0  0
   -1.7628   31.2736   11.0598 H   0  0  0  0  0  0  0  0  0  0  0  0
   -3.5735   29.8608   10.6242 H   0  0  0  0  0  0  0  0  0  0  0  0
   -2.4614   28.5940    9.9064 H   0  0  0  0  0  0  0  0  0  0  0  0
   -2.8150   29.2150   12.7720 H   0  0  0  0  0  0  0  0  0  0  0  0
   -2.6580   27.6140   14.0820 H   0  0  0  0  0  0  0  0  0  0  0  0
   -2.7441   25.0187   12.8983 H   0  0  0  0  0  0  0  0  0  0  0  0
   -0.6439   25.7304   14.7912 H   0  0  0  0  0  0  0  0  0  0  0  0
   -1.8006   24.5317   15.5186 H   0  0  0  0  0  0  0  0  0  0  0  0
    0.5424   26.0863   12.4252 H   0  0  0  0  0  0  0  0  0  0  0  0
    2.2500   25.5995   10.7481 H   0  0  0  0  0  0  0  0  0  0  0  0
    2.8989   23.2395   10.1740 H   0  0  0  0  0  0  0  0  0  0  0  0
    1.8972   21.3017   11.2709 H   0  0  0  0  0  0  0  0  0  0  0  0
    0.0900   20.7180   13.2110 H   0  0  0  0  0  0  0  0  0  0  0  0
   -2.0778   22.1438   13.9142 H   0  0  0  0  0  0  0  0  0  0  0  0
   -0.9172   22.1591   15.2104 H   0  0  0  0  0  0  0  0  0  0  0  0
   -0.6500   29.7740    7.5350 H   0  0  0  0  0  0  0  0  0  0  0  0
    1.7415   27.2242   10.4096 H   0  0  0  0  0  0  0  0  0  0  0  0
    4.0784   26.6088    9.8204 H   0  0  0  0  0  0  0  0  0  0  0  0
  1  2  1  0
  2  3  1  0
  3  4  2  0
  4  5  1  0
  5  6  2  0
  6  7  1  0
  7  8  1  0
  8  9  1  0
  9 10  1  0
 10 11  1  0
 11 12  1  0
 12 13  2  0
 12 14  1  0
 14 15  1  0
 15 16  1  0
 16 17  1  0
 17 18  2  0
 18 19  1  0
 19 20  2  0
 20 21  1  0
 21 22  2  0
 22 23  1  0
 23 24  2  0
 24 25  1  0
 15 26  1  0
 26 27  2  0
 26 28  1  0
  9 29  1  0
 29 30  1  0
  6 31  1  0
 31 32  2  0
 32  3  1  0
 30  7  1  0
 25 17  1  0
 23 18  1  0
  1 33  1  0
  1 34  1  0
  1 35  1  0
  4 36  1  0
  5 37  1  0
  7 38  1  1
  8 39  1  0
  8 40  1  0
  9 41  1  1
 10 42  1  0
 10 43  1  0
 11 44  1  0
 14 45  1  0
 15 46  1  6
 16 47  1  0
 16 48  1  0
 19 49  1  0
 20 50  1  0
 21 51  1  0
 22 52  1  0
 24 53  1  0
 25 54  1  0
 25 55  1  0
 30 56  1  0
 31 57  1  0
 32 58  1  0
M  CHG  2  24   1  28  -1
M  END
>  <vina_affinity>  (1) 
-8.533

$$$$
dec_C09744778
     RDKit          3D

 63 67  0  0  0  0  0  0  0  0999 V2000
   -1.5200   21.1200   12.3400 O   0  0  0  0  0  0  0  0  0  0  0  0
   -1.0900   21.5290   13.4220 C   0  0  0  0  0  0  0  0  0  0  0  0
   -0.6110   22.9870   13.5520 C   0  0  0  0  0  0  0  0  0  0  0  0
   -1.3490   23.9930   12.6360 N   0  0  0  0  0  0  0  0  0  0  0  0
   -0.5180   24.3970   11.4310 C   0  0  0  0  0  0  0  0  0  0  0  0
   -1.1940   25.5500   10.6510 C   0  0  0  0  0  0  0  0  0  0  0  0
   -1.4570   26.7360   11.5010 N   0  0  0  0  0  0  0  0  0  0  0  0
   -1.5190   27.9880   10.9110 C   0  0  0  0  0  0  0  0  0  0  0  0
   -0.5490   28.4470   10.0000 C   0  0  0  0  0  0  0  0  0  0  0  0
   -0.6490   29.7120    9.4180 C   0  0  0  0  0  0  0  0  0  0  0  0
   -1.7260   30.5340    9.7360 C   0  0  0  0  0  0  0  0  0  0  0  0
   -1.8940   31.9160    9.1630 C   0  0  0  0  0  0  0  0  0  0  0  0
   -2.8660   31.9410    8.2160 F   0  0  0  0  0  0  0  0  0  0  0  0
   -2.2650   32.8020   10.1190 F   0  0  0  0  0  0  0  0  0  0  0  0
   -0.7680   32.3980    8.5860 F   0  0  0  0  0  0  0  0  0  0  0  0
   -2.6620   30.0580   10.6450 C   0  0  0  0  0  0  0  0  0  0  0  0
   -2.5330   28.8320   11.1840 N   0  0  0  0  0  0  0  0  0  0  0  0
   -1.3800   26.5470   12.9620 C   0  0  0  0  0  0  0  0  0  0  0  0
   -1.9460   25.1710   13.4050 C   0  0  0  0  0  0  0  0  0  0  0  0
   -1.0000   20.7180   14.5280 N   0  0  0  0  0  0  0  0  0  0  0  0
    0.1950   20.7160   15.3630 C   0  0  0  0  0  0  0  0  0  0  0  0
   -0.1880   19.9100   16.5920 C   0  0  0  0  0  0  0  0  0  0  0  0
   -1.1820   18.8940   16.0440 C   0  0  0  0  0  0  0  0  0  0  0  0
   -1.9270   19.6550   14.9380 C   0  0  1  0  0  0  0  0  0  0  0  0
   -3.2720   20.1930   15.3770 C   0  0  0  0  0  0  0  0  0  0  0  0
   -4.4840   19.7200   14.8440 C   0  0  0  0  0  0  0  0  0  0  0  0
   -5.7070   20.2340   15.2830 C   0  0  0  0  0  0  0  0  0  0  0  0
   -5.7330   21.2340   16.2510 C   0  0  0  0  0  0  0  0  0  0  0  0
   -4.5420   21.7050   16.8010 C   0  0  0  0  0  0  0  0  0  0  0  0
   -3.3190   21.2040   16.3540 C   0  0  0  0  0  0  0  0  0  0  0  0
   -4.4890   22.6630   17.7780 O   0  0  0  0  0  0  0  0  0  0  0  0
   -5.7820   22.9470   18.3330 C   0  0  0  0  0  0  0  0  0  0  0  0
   -6.8510   22.9890   17.2520 C   0  0  0  0  0  0  0  0  0  0  0  0
   -6.9650   21.7070   16.6190 O   0  0  0  0  0  0  0  0  0  0  0  0
   -0.7555   23.3036   14.5955 H   0  0  0  0  0  0  0  0  0  0  0  0
    0.4436   22.9972   13.2394 H   0  0  0  0  0  0  0  0  0  0  0  0
   -2.1530   23.4620   12.2720 H   0  0  0  0  0  0  0  0  0  0  0  0
    0.4740   24.7273   11.7728 H   0  0  0  0  0  0  0  0  0  0  0  0
   -0.4263   23.5286   10.7621 H   0  0  0  0  0  0  0  0  0  0  0  0
   -0.5346   25.8493    9.8229 H   0  0  0  0  0  0  0  0  0  0  0  0
   -2.1634   25.1810   10.2847 H   0  0  0  0  0  0  0  0  0  0  0  0
    0.3014   27.7985    9.7426 H   0  0  0  0  0  0  0  0  0  0  0  0
    0.1199   30.0574    8.7113 H   0  0  0  0  0  0  0  0  0  0  0  0
   -3.5173   30.6896   10.9271 H   0  0  0  0  0  0  0  0  0  0  0  0
   -3.2290   28.5470   11.8660 H   0  0  0  0  0  0  0  0  0  0  0  0
   -0.3270   26.6138   13.2730 H   0  0  0  0  0  0  0  0  0  0  0  0
   -1.9878   27.3313   13.4369 H   0  0  0  0  0  0  0  0  0  0  0  0
   -1.7311   25.0337   14.4750 H   0  0  0  0  0  0  0  0  0  0  0  0
   -3.0259   25.1815   13.1958 H   0  0  0  0  0  0  0  0  0  0  0  0
    1.0351   20.2411   14.8351 H   0  0  0  0  0  0  0  0  0  0  0  0
    0.5215   21.7343   15.6210 H   0  0  0  0  0  0  0  0  0  0  0  0
    0.6904   19.4090   17.0250 H   0  0  0  0  0  0  0  0  0  0  0  0
   -0.6038   20.5279   17.4016 H   0  0  0  0  0  0  0  0  0  0  0  0
   -0.6582   18.0193   15.6310 H   0  0  0  0  0  0  0  0  0  0  0  0
   -1.8597   18.5070   16.8192 H   0  0  0  0  0  0  0  0  0  0  0  0
   -2.1872   18.9884   14.1026 H   0  0  0  0  0  0  0  0  0  0  0  0
   -4.4693   18.9362   14.0724 H   0  0  0  0  0  0  0  0  0  0  0  0
   -6.6483   19.8488   14.8640 H   0  0  0  0  0  0  0  0  0  0  0  0
   -2.3822   21.6035   16.7697 H   0  0  0  0  0  0  0  0  0  0  0  0
   -6.0393   22.1635   19.0610 H   0  0  0  0  0  0  0  0  0  0  0  0
   -5.7418   23.9327   18.8196 H   0  0  0  0  0  0  0  0  0  0  0  0
   -7.8164   23.2575   17.7057 H   0  0  0  0  0  0  0  0  0  0  0  0
   -6.5697   23.7384   16.4975 H   0  0  0  0  0  0  0  0  0  0  0  0
  1  2  2  0
  2  3  1  0
  3  4  1  0
  4  5  1  0
  5  6  1  0
  6  7  1  0
  7  8  1  0
  8  9  2  0
  9 10  1  0
 10 11  2  0
 11 12  1  0
 12 13  1  0
 12 14  1  0
 12 15  1  0
 11 16  1  0
 16 17  2  0
  7 18  1  0
 18 19  1  0
  2 20  1  0
 20 21  1  0
 21 22  1  0
 22 23  1  0
 23 24  1  0
 24 25  1  0
 25 26  2  0
 26 27  1  0
 27 28  2  0
 28 29  1  0
 29 30  2  0
 29 31  1  0
 31 32  1  0
 32 33  1  0
 33 34  1  0
 19  4  1  0
 24 20  1  0
 30 25  1  0
 17  8  1  0
 34 28  1  0
  3 35  1  0
  3 36  1  0
  4 37  1  0
  5 38  1  0
  5 39  1  0
  6 40  1  0
  6 41  1  0
  9 42  1  0
 10 43  1  0
 16 44  1  0
 17 45  1  0
 18 46  1  0
 18 47  1  0
 19 48  1  0
 19 49  1  0
 21 50  1  0
 21 51  1  0
 22 52  1  0
 22 53  1  0
 23 54  1  0
 23 55  1  0
 24 56  1  6
 26 57  1  0
 27 58  1  0
 30 59  1  0
 32 60  1  0
 32 61  1  0
 33 62  1  0
 33 63  1  0
M  CHG  2   4   1  17   1
M  END
>  <vina_affinity>  (1) 
-9.070

$$$$
dec_C60376725
     RDKit          3D

 39 41  0  0  0  0  0  0  0  0999 V2000
   -0.0810   22.5680   16.3280 N   0  0  0  0  0  0  0  0  0  0  0  0
   -0.4060   23.3130   15.5000 C   0  0  0  0  0  0  0  0  0  0  0  0
   -0.8130   24.2360   14.4790 C   0  0  0  0  0  0  0  0  0  0  0  0
   -0.7500   23.8610   13.1310 C   0  0  0  0  0  0  0  0  0  0  0  0
   -1.1460   24.7580   12.1360 C   0  0  0  0  0  0  0  0  0  0  0  0
   -1.6080   26.0270   12.4980 C   0  0  0  0  0  0  0  0  0  0  0  0
   -2.1140   27.1580   11.2110 S   0  0  0  0  0  0  0  0  0  0  0  0
   -1.8810   26.4940    9.9420 O   0  0  0  0  0  0  0  0  0  0  0  0
   -3.4330   27.6100   11.5950 O   0  0  0  0  0  0  0  0  0  0  0  0
   -0.9390   28.4110   11.3760 N   0  0  0  0  0  0  0  0  0  0  0  0
    0.4760   27.9260   11.4310 C   0  0  0  0  0  0  0  0  0  0  0  0
    1.0810   27.8930   10.0320 C   0  0  2  0  0  0  0  0  0  0  0  0
    2.4500   27.2530   10.0880 C   0  0  0  0  0  0  0  0  0  0  0  0
    2.6050   26.3150   11.0710 N   0  0  0  0  0  0  0  0  0  0  0  0
    3.3840   27.5460    9.3530 O   0  0  0  0  0  0  0  0  0  0  0  0
    1.1410   29.3150    9.4920 C   0  0  0  0  0  0  0  0  0  0  0  0
   -0.1790   30.0290    9.6470 C   0  0  0  0  0  0  0  0  0  0  0  0
   -0.4030   31.1940    8.8960 C   0  0  0  0  0  0  0  0  0  0  0  0
   -1.5760   31.9280    9.0570 C   0  0  0  0  0  0  0  0  0  0  0  0
   -2.5260   31.5180    9.9850 C   0  0  0  0  0  0  0  0  0  0  0  0
   -2.3090   30.3670   10.7450 C   0  0  0  0  0  0  0  0  0  0  0  0
   -1.1500   29.6010   10.5720 C   0  0  0  0  0  0  0  0  0  0  0  0
   -1.6700   26.4130   13.8400 C   0  0  0  0  0  0  0  0  0  0  0  0
   -1.2730   25.5120   14.8300 C   0  0  0  0  0  0  0  0  0  0  0  0
   -0.3884   22.8593   12.8556 H   0  0  0  0  0  0  0  0  0  0  0  0
   -1.0948   24.4682   11.0761 H   0  0  0  0  0  0  0  0  0  0  0  0
    1.0668   28.6030   12.0656 H   0  0  0  0  0  0  0  0  0  0  0  0
    0.4886   26.9088   11.8494 H   0  0  0  0  0  0  0  0  0  0  0  0
    0.4606   27.2899    9.3527 H   0  0  0  0  0  0  0  0  0  0  0  0
    3.4790   25.8020   11.0480 H   0  0  0  0  0  0  0  0  0  0  0  0
    1.8010   25.8150   11.4330 H   0  0  0  0  0  0  0  0  0  0  0  0
    1.9140   29.8723   10.0415 H   0  0  0  0  0  0  0  0  0  0  0  0
    1.3782   29.2637    8.4191 H   0  0  0  0  0  0  0  0  0  0  0  0
    0.3551   31.5304    8.1735 H   0  0  0  0  0  0  0  0  0  0  0  0
   -1.7499   32.8296    8.4513 H   0  0  0  0  0  0  0  0  0  0  0  0
   -3.4492   32.1005   10.1207 H   0  0  0  0  0  0  0  0  0  0  0  0
   -3.0581   30.0582   11.4890 H   0  0  0  0  0  0  0  0  0  0  0  0
   -2.0280   27.4165   14.1134 H   0  0  0  0  0  0  0  0  0  0  0  0
   -1.3216   25.8050   15.8892 H   0  0  0  0  0  0  0  0  0  0  0  0
  1  2  3  0
  2  3  1  0
  3  4  2  0
  4  5  1  0
  5  6  2  0
  6  7  1  0
  7  8  2  0
  7  9  2  0
  7 10  1  0
 10 11  1  0
 11 12  1  0
 12 13  1  0
 13 14  1  0
 13 15  2  0
 12 16  1  0
 16 17  1  0
 17 18  2  0
 18 19  1  0
 19 20  2  0
 20 21  1  0
 21 22  2  0
  6 23  1  0
 23 24  2  0
 24  3  1  0
 22 10  1  0
 22 17  1  0
  4 25  1  0
  5 26  1  0
 11 27  1  0
 11 28  1  0
 12 29  1  6
 14 30  1  0
 14 31  1  0
 16 32  1  0
 16 33  1  0
 18 34  1  0
 19 35  1  0
 20 36  1  0
 21 37  1  0
 23 38  1  0
 24 39  1  0
M  END
>  <vina_affinity>  (1) 
-8.824

$$$$
dec_C63162308
     RDKit          3D

 42 44  0  0  0  0  0  0  0  0999 V2000
   -2.3470   27.1030   11.8650 O   0  0  0  0  0  0  0  0  0  0  0  0
   -1.5360   27.5330   12.6740 C   0  0  0  0  0  0  0  0  0  0  0  0
   -1.4520   27.0750   13.9750 N   0  0  0  0  0  0  0  0  0  0  0  0
   -2.4170   26.0980   14.4490 C   0  0  0  0  0  0  0  0  0  0  0  0
   -1.7910   24.7980   14.9570 C   0  0  1  0  0  0  0  0  0  0  0  0
   -2.8370   23.7540   15.3360 C   0  0  0  0  0  0  0  0  0  0  0  0
   -2.2510   22.6230   15.9910 O   0  0  0  0  0  0  0  0  0  0  0  0
   -1.1440   22.1100   15.3720 C   0  0  0  0  0  0  0  0  0  0  0  0
   -0.7430   20.8410   15.7900 C   0  0  0  0  0  0  0  0  0  0  0  0
    0.3790   20.2370   15.2220 C   0  0  0  0  0  0  0  0  0  0  0  0
    1.1040   20.9070   14.2390 C   0  0  0  0  0  0  0  0  0  0  0  0
    0.7120   22.1820   13.8290 C   0  0  0  0  0  0  0  0  0  0  0  0
   -0.4070   22.7990   14.4020 C   0  0  0  0  0  0  0  0  0  0  0  0
   -0.8200   24.1720   13.9530 C   0  0  0  0  0  0  0  0  0  0  0  0
   -0.5940   28.5030   12.4330 N   0  0  0  0  0  0  0  0  0  0  0  0
   -0.3810   29.2280   11.2810 C   0  0  0  0  0  0  0  0  0  0  0  0
   -1.0390   30.3350   10.8920 C   0  0  0  0  0  0  0  0  0  0  0  0
   -0.7230   31.0230    9.6450 C   0  0  0  0  0  0  0  0  0  0  0  0
   -1.5190   32.2490    9.2990 C   0  0  0  0  0  0  0  0  0  0  0  0
   -0.7990   33.1270    8.5560 F   0  0  0  0  0  0  0  0  0  0  0  0
   -1.9380   32.9230   10.4020 F   0  0  0  0  0  0  0  0  0  0  0  0
   -2.6320   31.9430    8.5860 F   0  0  0  0  0  0  0  0  0  0  0  0
    0.2580   30.5360    8.8670 C   0  0  0  0  0  0  0  0  0  0  0  0
    0.9550   29.4130    9.2340 N   0  0  0  0  0  0  0  0  0  0  0  0
    0.7200   28.7080   10.3900 C   0  0  0  0  0  0  0  0  0  0  0  0
    1.3620   27.7060   10.7000 O   0  0  0  0  0  0  0  0  0  0  0  0
   -1.1670   27.7870   14.6320 H   0  0  0  0  0  0  0  0  0  0  0  0
   -2.9905   26.5499   15.2717 H   0  0  0  0  0  0  0  0  0  0  0  0
   -3.0476   25.8313   13.5881 H   0  0  0  0  0  0  0  0  0  0  0  0
   -1.2311   25.0940   15.8564 H   0  0  0  0  0  0  0  0  0  0  0  0
   -3.5711   24.2157   16.0127 H   0  0  0  0  0  0  0  0  0  0  0  0
   -3.3166   23.4011   14.4111 H   0  0  0  0  0  0  0  0  0  0  0  0
   -1.3132   20.3150   16.5698 H   0  0  0  0  0  0  0  0  0  0  0  0
    0.6905   19.2341   15.5495 H   0  0  0  0  0  0  0  0  0  0  0  0
    1.9859   20.4307   13.7858 H   0  0  0  0  0  0  0  0  0  0  0  0
    1.2859   22.7059   13.0504 H   0  0  0  0  0  0  0  0  0  0  0  0
    0.0731   24.8086   13.8687 H   0  0  0  0  0  0  0  0  0  0  0  0
   -1.3223   24.0900   12.9778 H   0  0  0  0  0  0  0  0  0  0  0  0
    0.1200   28.6380   13.1430 H   0  0  0  0  0  0  0  0  0  0  0  0
   -1.8391   30.7333   11.5333 H   0  0  0  0  0  0  0  0  0  0  0  0
    0.5055   31.0444    7.9234 H   0  0  0  0  0  0  0  0  0  0  0  0
    1.6950   29.0520    8.6410 H   0  0  0  0  0  0  0  0  0  0  0  0
  1  2  2  0
  2  3  1  0
  3  4  1  0
  4  5  1  0
  5  6  1  0
  6  7  1  0
  7  8  1  0
  8  9  2  0
  9 10  1  0
 10 11  2  0
 11 12  1  0
 12 13  2  0
 13 14  1  0
  2 15  1  0
 15 16  1  0
 16 17  2  0
 17 18  1  0
 18 19  1  0
 19 20  1  0
 19 21  1  0
 19 22  1  0
 18 23  2  0
 23 24  1  0
 24 25  1  0
 25 26  2  0
 14  5  1  0
 25 16  1  0
 13  8  1  0
  3 27  1  0
  4 28  1  0
  4 29  1  0
  5 30  1  1
  6 31  1  0
  6 32  1  0
  9 33  1  0
 10 34  1  0
 11 35  1  0
 12 36  1  0
 14 37  1  0
 14 38  1  0
 15 39  1  0
 17 40  1  0
 23 41  1  0
 24 42  1  0
M  END
>  <vina_affinity>  (1) 
-8.790

$$$$
dec_C36506459
     RDKit          3D

 60 62  0  0  0  0  0  0  0  0999 V2000
    2.2160   30.7560    7.5710 C   0  0  0  0  0  0  0  0  0  0  0  0
    2.7140   29.3180    7.7770 C   0  0  0  0  0  0  0  0  0  0  0  0
    3.0050   28.6950    6.3990 C   0  0  0  0  0  0  0  0  0  0  0  0
    4.0220   29.3200    8.5870 C   0  0  0  0  0  0  0  0  0  0  0  0
    1.6860   28.5000    8.4310 N   0  0  0  0  0  0  0  0  0  0  0  0
    1.1070   28.7690    9.6610 C   0  0  0  0  0  0  0  0  0  0  0  0
    1.4800   29.6910   10.3860 O   0  0  0  0  0  0  0  0  0  0  0  0
   -0.0220   27.7740   10.0900 C   0  0  1  0  0  0  0  0  0  0  0  0
    0.5120   26.4160   10.5300 C   0  0  0  0  0  0  0  0  0  0  0  0
   -0.3090   25.2770   10.4480 C   0  0  0  0  0  0  0  0  0  0  0  0
   -1.5860   25.4120    9.9750 O   0  0  0  0  0  0  0  0  0  0  0  0
    0.1440   24.0120   10.8350 C   0  0  0  0  0  0  0  0  0  0  0  0
    1.4420   23.8780   11.3150 C   0  0  0  0  0  0  0  0  0  0  0  0
    1.9360   22.6690   11.7090 O   0  0  0  0  0  0  0  0  0  0  0  0
    2.2810   24.9790   11.4160 C   0  0  0  0  0  0  0  0  0  0  0  0
    1.8120   26.2350   11.0290 C   0  0  0  0  0  0  0  0  0  0  0  0
    2.6380   27.3150   11.1720 O   0  0  0  0  0  0  0  0  0  0  0  0
   -1.0180   28.4000   11.0170 N   0  0  0  0  0  0  0  0  0  0  0  0
   -2.2570   28.9670   10.4810 C   0  0  0  0  0  0  0  0  0  0  0  0
   -2.0470   30.3660   10.0130 C   0  0  0  0  0  0  0  0  0  0  0  0
   -1.8220   30.9190    8.7670 C   0  0  0  0  0  0  0  0  0  0  0  0
   -1.7180   32.3170    8.9590 C   0  0  0  0  0  0  0  0  0  0  0  0
   -1.8940   32.5310   10.3040 C   0  0  0  0  0  0  0  0  0  0  0  0
   -2.0950   31.3560   10.9530 O   0  0  0  0  0  0  0  0  0  0  0  0
   -0.8900   28.3630   12.4060 C   0  0  0  0  0  0  0  0  0  0  0  0
   -0.4770   29.2990   13.0850 O   0  0  0  0  0  0  0  0  0  0  0  0
   -1.3080   27.1520   13.1350 C   0  0  0  0  0  0  0  0  0  0  0  0
   -0.3950   26.5030   13.9740 C   0  0  0  0  0  0  0  0  0  0  0  0
   -0.7940   25.3650   14.6780 C   0  0  0  0  0  0  0  0  0  0  0  0
   -2.1110   24.8980   14.5480 C   0  0  0  0  0  0  0  0  0  0  0  0
   -2.5330   23.7020   15.2900 N   0  0  0  0  0  0  0  0  0  0  0  0
   -1.9110   22.6490   15.0880 O   0  0  0  0  0  0  0  0  0  0  0  0
   -3.4860   23.8170   16.0750 O   0  0  0  0  0  0  0  0  0  0  0  0
   -3.0310   25.5650   13.7230 C   0  0  0  0  0  0  0  0  0  0  0  0
   -2.6270   26.7010   13.0200 C   0  0  0  0  0  0  0  0  0  0  0  0
    2.0516   31.2308    8.5495 H   0  0  0  0  0  0  0  0  0  0  0  0
    2.9685   31.3275    7.0080 H   0  0  0  0  0  0  0  0  0  0  0  0
    1.2712   30.7397    7.0080 H   0  0  0  0  0  0  0  0  0  0  0  0
    3.4670   27.7059    6.5340 H   0  0  0  0  0  0  0  0  0  0  0  0
    2.0642   28.5870    5.8394 H   0  0  0  0  0  0  0  0  0  0  0  0
    3.6917   29.3472    5.8394 H   0  0  0  0  0  0  0  0  0  0  0  0
    3.7877   29.3196    9.6618 H   0  0  0  0  0  0  0  0  0  0  0  0
    4.6081   28.4227    8.3392 H   0  0  0  0  0  0  0  0  0  0  0  0
    4.6054   30.2190    8.3392 H   0  0  0  0  0  0  0  0  0  0  0  0
    1.1990   27.8180    7.8630 H   0  0  0  0  0  0  0  0  0  0  0  0
   -0.6030   27.5415    9.1854 H   0  0  0  0  0  0  0  0  0  0  0  0
   -2.1390   25.8180   10.6640 H   0  0  0  0  0  0  0  0  0  0  0  0
   -0.5168   23.1358   10.7608 H   0  0  0  0  0  0  0  0  0  0  0  0
    2.1800   22.1540   10.9230 H   0  0  0  0  0  0  0  0  0  0  0  0
    3.3061   24.8626   11.7976 H   0  0  0  0  0  0  0  0  0  0  0  0
    3.5140   26.9930   11.4510 H   0  0  0  0  0  0  0  0  0  0  0  0
   -2.5971   28.3521    9.6347 H   0  0  0  0  0  0  0  0  0  0  0  0
   -3.0125   28.9752   11.2804 H   0  0  0  0  0  0  0  0  0  0  0  0
   -1.7398   30.3783    7.8126 H   0  0  0  0  0  0  0  0  0  0  0  0
   -1.5335   33.0785    8.1869 H   0  0  0  0  0  0  0  0  0  0  0  0
   -1.8747   33.5184   10.7885 H   0  0  0  0  0  0  0  0  0  0  0  0
    0.6305   26.8870   14.0782 H   0  0  0  0  0  0  0  0  0  0  0  0
   -0.0812   24.8384   15.3297 H   0  0  0  0  0  0  0  0  0  0  0  0
   -4.0628   25.1948   13.6315 H   0  0  0  0  0  0  0  0  0  0  0  0
   -3.3416   27.2384   12.3793 H   0  0  0  0  0  0  0  0  0  0  0  0
  1  2  1  0
  2  3  1  0
  2  4  1  0
  2  5  1  0
  5  6  1  0
  6  7  2  0
  6  8  1  0
  8  9  1  0
  9 10  2  0
 10 11  1  0
 10 12  1  0
 12 13  2  0
 13 14  1  0
 13 15  1  0
 15 16  2  0
 16 17  1  0
  8 18  1  0
 18 19  1  0
 19 20  1  0
 20 21  2  0
 21 22  1  0
 22 23  2  0
 23 24  1  0
 18 25  1  0
 25 26  2  0
 25 27  1  0
 27 28  2  0
 28 29  1  0
 29 30  2  0
 30 31  1  0
 31 32  2  0
 31 33  1  0
 30 34  1  0
 34 35  2  0
 16  9  1  0
 24 20  1  0
 35 27  1  0
  1 36  1  0
  1 37  1  0
  1 38  1  0
  3 39  1  0
  3 40  1  0
  3 41  1  0
  4 42  1  0
  4 43  1  0
  4 44  1  0
  5 45  1  0
  8 46  1  6
 11 47  1  0
 12 48  1  0
 14 49  1  0
 15 50  1  0
 17 51  1  0
 19 52  1  0
 19 53  1  0
 21 54  1  0
 22 55  1  0
 23 56  1  0
 28 57  1  0
 29 58  1  0
 34 59  1  0
 35 60  1  0
M  CHG  2  31   1  33  -1
M  END
>  <vina_affinity>  (1) 
-6.985

$$$$
dec_C03998300
     RDKit          3D

 44 46  0  0  0  0  0  0  0  0999 V2000
    4.4750   28.5640    7.7900 C   0  0  0  0  0  0  0  0  0  0  0  0
    5.2940   27.5540    7.2070 O   0  0  0  0  0  0  0  0  0  0  0  0
    4.7610   26.8840    6.1350 C   0  0  0  0  0  0  0  0  0  0  0  0
    4.2890   27.5330    4.9890 C   0  0  0  0  0  0  0  0  0  0  0  0
    3.7750   26.7970    3.9250 C   0  0  0  0  0  0  0  0  0  0  0  0
    3.7300   25.4110    4.0030 C   0  0  0  0  0  0  0  0  0  0  0  0
    4.2100   24.7530    5.1380 C   0  0  0  0  0  0  0  0  0  0  0  0
    4.7540   25.4710    6.2180 C   0  0  0  0  0  0  0  0  0  0  0  0
    5.2650   24.7850    7.4890 C   0  0  1  0  0  0  0  0  0  0  0  0
    4.1070   24.1810    8.2760 C   0  0  0  0  0  0  0  0  0  0  0  0
    3.3120   25.0540    9.0800 C   0  0  0  0  0  0  0  0  0  0  0  0
    2.6560   25.7520    9.7340 N   0  0  0  0  0  0  0  0  0  0  0  0
    3.8760   22.8470    8.2660 C   0  0  0  0  0  0  0  0  0  0  0  0
    2.8880   22.1950    8.9610 N   0  0  0  0  0  0  0  0  0  0  0  0
    4.6440   21.9680    7.4650 O   0  0  0  0  0  0  0  0  0  0  0  0
    5.7600   22.4620    6.9100 C   0  0  0  0  0  0  0  0  0  0  0  0
    6.3910   21.9200    5.9200 N   0  0  0  0  0  0  0  0  0  0  0  0
    7.4720   22.7920    5.5770 N   0  0  0  0  0  0  0  0  0  0  0  0
    7.4730   23.8040    6.3980 C   0  0  0  0  0  0  0  0  0  0  0  0
    8.5500   24.8860    6.3920 C   0  0  0  0  0  0  0  0  0  0  0  0
    9.9320   24.2610    6.6330 C   0  0  0  0  0  0  0  0  0  0  0  0
    8.5730   25.5800    5.0160 C   0  0  0  0  0  0  0  0  0  0  0  0
    8.2640   25.9430    7.4610 C   0  0  0  0  0  0  0  0  0  0  0  0
    6.3520   23.7230    7.3960 C   0  0  1  0  0  0  0  0  0  0  0  0
    4.5315   28.4943    8.8863 H   0  0  0  0  0  0  0  0  0  0  0  0
    4.8283   29.5543    7.4668 H   0  0  0  0  0  0  0  0  0  0  0  0
    3.4330   28.4230    7.4668 H   0  0  0  0  0  0  0  0  0  0  0  0
    4.3242   28.6308    4.9284 H   0  0  0  0  0  0  0  0  0  0  0  0
    3.4057   27.3114    3.0255 H   0  0  0  0  0  0  0  0  0  0  0  0
    3.3145   24.8288    3.1673 H   0  0  0  0  0  0  0  0  0  0  0  0
    4.1617   23.6552    5.1878 H   0  0  0  0  0  0  0  0  0  0  0  0
    5.7629   25.6335    7.9811 H   0  0  0  0  0  0  0  0  0  0  0  0
    1.9730   22.6420    8.9500 H   0  0  0  0  0  0  0  0  0  0  0  0
    2.8420   21.2060    8.7210 H   0  0  0  0  0  0  0  0  0  0  0  0
   10.1137   24.1788    7.7148 H   0  0  0  0  0  0  0  0  0  0  0  0
    9.9660   23.2599    6.1784 H   0  0  0  0  0  0  0  0  0  0  0  0
   10.7062   24.8966    6.1784 H   0  0  0  0  0  0  0  0  0  0  0  0
    8.6091   26.6705    5.1559 H   0  0  0  0  0  0  0  0  0  0  0  0
    9.4608   25.2527    4.4550 H   0  0  0  0  0  0  0  0  0  0  0  0
    7.6655   25.3122    4.4550 H   0  0  0  0  0  0  0  0  0  0  0  0
    8.3847   25.4969    8.4592 H   0  0  0  0  0  0  0  0  0  0  0  0
    8.9678   26.7805    7.3461 H   0  0  0  0  0  0  0  0  0  0  0  0
    7.2339   26.3113    7.3461 H   0  0  0  0  0  0  0  0  0  0  0  0
    6.7551   23.8357    8.4133 H   0  0  0  0  0  0  0  0  0  0  0  0
  1  2  1  0
  2  3  1  0
  3  4  2  0
  4  5  1  0
  5  6  2  0
  6  7  1  0
  7  8  2  0
  8  9  1  0
  9 10  1  0
 10 11  1  0
 11 12  3  0
 10 13  2  0
 13 14  1  0
 13 15  1  0
 15 16  1  0
 16 17  2  0
 17 18  1  0
 18 19  2  0
 19 20  1  0
 20 21  1  0
 20 22  1  0
 20 23  1  0
 19 24  1  0
  8  3  1  0
 24  9  1  0
 24 16  1  0
  1 25  1  0
  1 26  1  0
  1 27  1  0
  4 28  1  0
  5 29  1  0
  6 30  1  0
  7 31  1  0
  9 32  1  1
 14 33  1  0
 14 34  1  0
 21 35  1  0
 21 36  1  0
 21 37  1  0
 22 38  1  0
 22 39  1  0
 22 40  1  0
 23 41  1  0
 23 42  1  0
 23 43  1  0
 24 44  1  1
M  END
>  <vina_affinity>  (1) 
-5.687

$$$$
dec_C39694401
     RDKit          3D

 71 75  0  0  0  0  0  0  0  0999 V2000
   -1.6310   25.8390   14.3950 C   0  0  0  0  0  0  0  0  0  0  0  0
   -0.8540   24.7090   13.8360 C   0  0  0  0  0  0  0  0  0  0  0  0
   -0.4330   23.7350   14.6520 N   0  0  0  0  0  0  0  0  0  0  0  0
    0.3550   22.9060   13.8760 O   0  0  0  0  0  0  0  0  0  0  0  0
    0.3690   23.3630   12.5960 C   0  0  0  0  0  0  0  0  0  0  0  0
    1.1970   22.6070   11.6360 C   0  0  0  0  0  0  0  0  0  0  0  0
   -0.4380   24.4750   12.4990 C   0  0  0  0  0  0  0  0  0  0  0  0
   -0.7000   25.2120   11.2860 C   0  0  0  0  0  0  0  0  0  0  0  0
   -1.5190   24.8180   10.4610 O   0  0  0  0  0  0  0  0  0  0  0  0
   -0.0280   26.4140   11.1240 N   0  0  0  0  0  0  0  0  0  0  0  0
    1.2820   26.4390   10.4940 C   0  0  0  0  0  0  0  0  0  0  0  0
    1.6620   27.9170   10.4740 C   0  0  1  0  0  0  0  0  0  0  0  0
    2.6860   28.2390    9.4030 C   0  0  0  0  0  0  0  0  0  0  0  0
    2.7260   29.3370    8.8550 O   0  0  0  0  0  0  0  0  0  0  0  0
    3.5630   27.2210    9.1470 N   0  0  0  0  0  0  0  0  0  0  0  0
    4.7730   27.4170    8.3750 C   0  0  0  0  0  0  0  0  0  0  0  0
    4.5600   27.0640    6.9180 C   0  0  0  0  0  0  0  0  0  0  0  0
    4.1240   28.0800    6.0480 C   0  0  0  0  0  0  0  0  0  0  0  0
    3.8900   27.8180    4.7000 C   0  0  0  0  0  0  0  0  0  0  0  0
    4.0790   26.5340    4.2050 C   0  0  0  0  0  0  0  0  0  0  0  0
    4.5050   25.5120    5.0550 C   0  0  0  0  0  0  0  0  0  0  0  0
    4.7570   25.7510    6.4180 C   0  0  0  0  0  0  0  0  0  0  0  0
    5.1700   24.7150    7.2960 N   0  0  0  0  0  0  0  0  0  0  0  0
    4.4800   23.4390    6.9410 C   0  0  0  0  0  0  0  0  0  0  0  0
    5.1340   22.2680    7.6920 C   0  0  0  0  0  0  0  0  0  0  0  0
    6.5180   22.0750    7.3660 O   0  0  0  0  0  0  0  0  0  0  0  0
    7.1480   23.2430    6.8220 C   0  0  0  0  0  0  0  0  0  0  0  0
    6.6400   24.5430    7.4610 C   0  0  0  0  0  0  0  0  0  0  0  0
    0.2810   28.6400   10.3510 C   0  0  0  0  0  0  0  0  0  0  0  0
   -0.3540   28.5650    8.9260 C   0  0  0  0  0  0  0  0  0  0  0  0
   -0.3960   29.9100    8.2110 C   0  0  0  0  0  0  0  0  0  0  0  0
   -1.1500   30.9020    9.0380 N   0  0  0  0  0  0  0  0  0  0  0  0
   -0.9070   30.8800   10.5110 C   0  0  0  0  0  0  0  0  0  0  0  0
    0.3550   30.1000   10.8480 C   0  0  0  0  0  0  0  0  0  0  0  0
   -0.5520   27.7570   11.3160 C   0  0  0  0  0  0  0  0  0  0  0  0
   -1.6016   25.7962   15.4938 H   0  0  0  0  0  0  0  0  0  0  0  0
   -1.1942   26.7890   14.0532 H   0  0  0  0  0  0  0  0  0  0  0  0
   -2.6744   25.7712   14.0532 H   0  0  0  0  0  0  0  0  0  0  0  0
    1.9008   21.9644   12.1853 H   0  0  0  0  0  0  0  0  0  0  0  0
    0.5480   21.9833   11.0036 H   0  0  0  0  0  0  0  0  0  0  0  0
    1.7592   23.3099   11.0036 H   0  0  0  0  0  0  0  0  0  0  0  0
    2.0081   25.8578   11.0813 H   0  0  0  0  0  0  0  0  0  0  0  0
    1.2736   25.9933    9.4884 H   0  0  0  0  0  0  0  0  0  0  0  0
    2.1945   28.2593   11.3736 H   0  0  0  0  0  0  0  0  0  0  0  0
    3.6850   26.4900    9.8450 H   0  0  0  0  0  0  0  0  0  0  0  0
    5.0771   28.4716    8.4473 H   0  0  0  0  0  0  0  0  0  0  0  0
    5.5542   26.7576    8.7811 H   0  0  0  0  0  0  0  0  0  0  0  0
    3.9655   29.0963    6.4380 H   0  0  0  0  0  0  0  0  0  0  0  0
    3.5569   28.6246    4.0303 H   0  0  0  0  0  0  0  0  0  0  0  0
    3.8927   26.3223    3.1418 H   0  0  0  0  0  0  0  0  0  0  0  0
    4.6465   24.4989    4.6506 H   0  0  0  0  0  0  0  0  0  0  0  0
    3.4189   23.5068    7.2229 H   0  0  0  0  0  0  0  0  0  0  0  0
    4.5651   23.2689    5.8576 H   0  0  0  0  0  0  0  0  0  0  0  0
    5.0552   22.4608    8.7721 H   0  0  0  0  0  0  0  0  0  0  0  0
    4.6018   21.3543    7.3889 H   0  0  0  0  0  0  0  0  0  0  0  0
    8.2325   23.1685    6.9906 H   0  0  0  0  0  0  0  0  0  0  0  0
    6.9043   23.2827    5.7501 H   0  0  0  0  0  0  0  0  0  0  0  0
    6.8760   24.5253    8.5352 H   0  0  0  0  0  0  0  0  0  0  0  0
    7.1369   25.3840    6.9552 H   0  0  0  0  0  0  0  0  0  0  0  0
    0.2369   27.8648    8.3173 H   0  0  0  0  0  0  0  0  0  0  0  0
   -1.3946   28.2310    9.0512 H   0  0  0  0  0  0  0  0  0  0  0  0
    0.6308   30.2717    8.0535 H   0  0  0  0  0  0  0  0  0  0  0  0
   -0.9002   29.7892    7.2409 H   0  0  0  0  0  0  0  0  0  0  0  0
   -0.9140   31.8380    8.6770 H   0  0  0  0  0  0  0  0  0  0  0  0
   -2.1580   30.7960    8.8590 H   0  0  0  0  0  0  0  0  0  0  0  0
   -0.7976   31.9132   10.8722 H   0  0  0  0  0  0  0  0  0  0  0  0
   -1.7617   30.3877   10.9981 H   0  0  0  0  0  0  0  0  0  0  0  0
    1.2155   30.5939   10.3731 H   0  0  0  0  0  0  0  0  0  0  0  0
    0.4618   30.0819   11.9427 H   0  0  0  0  0  0  0  0  0  0  0  0
   -0.4146   28.0828   12.3576 H   0  0  0  0  0  0  0  0  0  0  0  0
   -1.6313   27.8181   11.1126 H   0  0  0  0  0  0  0  0  0  0  0  0
  1  2  1  0
  2  3  2  0
  3  4  1  0
  4  5  1  0
  5  6  1  0
  5  7  2  0
  7  8  1  0
  8  9  2  0
  8 10  1  0
 10 11  1  0
 11 12  1  0
 12 13  1  0
 13 14  2  0
 13 15  1  0
 15 16  1  0
 16 17  1  0
 17 18  2  0
 18 19  1  0
 19 20  2  0
 20 21  1  0
 21 22  2  0
 22 23  1  0
 23 24  1  0
 24 25  1  0
 25 26  1  0
 26 27  1  0
 27 28  1  0
 12 29  1  0
 29 30  1  0
 30 31  1  0
 31 32  1  0
 32 33  1  0
 33 34  1  0
 29 35  1  0
  7  2  1  0
 35 10  1  0
 22 17  1  0
 28 23  1  0
 34 29  1  0
  1 36  1  0
  1 37  1  0
  1 38  1  0
  6 39  1  0
  6 40  1  0
  6 41  1  0
 11 42  1  0
 11 43  1  0
 12 44  1  1
 15 45  1  0
 16 46  1  0
 16 47  1  0
 18 48  1  0
 19 49  1  0
 20 50  1  0
 21 51  1  0
 24 52  1  0
 24 53  1  0
 25 54  1  0
 25 55  1  0
 27 56  1  0
 27 57  1  0
 28 58  1  0
 28 59  1  0
 30 60  1  0
 30 61  1  0
 31 62  1  0
 31 63  1  0
 32 64  1  0
 32 65  1  0
 33 66  1  0
 33 67  1  0
 34 68  1  0
 34 69  1  0
 35 70  1  0
 35 71  1  0
M  CHG  1  32   1
M  END
>  <vina_affinity>  (1) 
-8.636

$$$$
dec_C04585753
     RDKit          3D

 52 54  0  0  0  0  0  0  0  0999 V2000
   -4.5880   23.7630   15.7480 C   0  0  0  0  0  0  0  0  0  0  0  0
   -3.2880   22.9830   15.8170 C   0  0  0  0  0  0  0  0  0  0  0  0
   -2.2070   23.6570   15.0060 N   0  0  1  0  0  0  0  0  0  0  0  0
   -1.4870   22.6640   14.0930 C   0  0  0  0  0  0  0  0  0  0  0  0
   -0.2370   23.3090   13.4610 C   0  0  0  0  0  0  0  0  0  0  0  0
   -0.5460   24.6520   12.8630 C   0  0  0  0  0  0  0  0  0  0  0  0
   -1.6940   25.3270   13.2350 C   0  0  0  0  0  0  0  0  0  0  0  0
   -1.8880   26.7880   12.4070 S   0  0  0  0  0  0  0  0  0  0  0  0
   -0.4720   26.5510   11.5030 C   0  0  0  0  0  0  0  0  0  0  0  0
   -0.0820   27.4560   10.5240 N   0  0  0  0  0  0  0  0  0  0  0  0
    0.4530   28.7160   10.7240 C   0  0  0  0  0  0  0  0  0  0  0  0
    0.6860   29.2680   11.7860 O   0  0  0  0  0  0  0  0  0  0  0  0
    0.7400   29.4530    9.4740 C   0  0  0  0  0  0  0  0  0  0  0  0
    2.0310   29.3090    8.9320 C   0  0  0  0  0  0  0  0  0  0  0  0
    2.3960   29.9970    7.7740 C   0  0  0  0  0  0  0  0  0  0  0  0
    1.4800   30.8410    7.1530 C   0  0  0  0  0  0  0  0  0  0  0  0
    0.2020   30.9980    7.6900 C   0  0  0  0  0  0  0  0  0  0  0  0
   -0.1790   30.3060    8.8530 C   0  0  0  0  0  0  0  0  0  0  0  0
   -1.8560   30.5430    9.4130 S   0  0  0  0  0  0  0  0  0  0  0  0
   -2.2920   29.2440    9.9010 O   0  0  0  0  0  0  0  0  0  0  0  0
   -2.5890   31.1940    8.3480 O   0  0  0  0  0  0  0  0  0  0  0  0
   -1.8060   31.6010   10.8460 C   0  0  0  0  0  0  0  0  0  0  0  0
   -1.8910   33.0680   10.4610 C   0  0  0  0  0  0  0  0  0  0  0  0
    0.2050   25.3880   11.8620 C   0  0  0  0  0  0  0  0  0  0  0  0
    1.4720   25.0300   11.2190 C   0  0  0  0  0  0  0  0  0  0  0  0
    2.6050   25.1930   11.9620 N   0  0  0  0  0  0  0  0  0  0  0  0
    1.5400   24.6580   10.0520 O   0  0  0  0  0  0  0  0  0  0  0  0
   -2.7190   24.8570   14.2110 C   0  0  0  0  0  0  0  0  0  0  0  0
   -4.9425   23.9757   16.7673 H   0  0  0  0  0  0  0  0  0  0  0  0
   -4.4198   24.7095   15.2133 H   0  0  0  0  0  0  0  0  0  0  0  0
   -5.3440   23.1692   15.2133 H   0  0  0  0  0  0  0  0  0  0  0  0
   -2.9629   22.9183   16.8659 H   0  0  0  0  0  0  0  0  0  0  0  0
   -3.4605   21.9784   15.4035 H   0  0  0  0  0  0  0  0  0  0  0  0
   -1.5090   24.0280   15.6620 H   0  0  0  0  0  0  0  0  0  0  0  0
   -1.1813   21.7875   14.6832 H   0  0  0  0  0  0  0  0  0  0  0  0
   -2.1737   22.3628   13.2882 H   0  0  0  0  0  0  0  0  0  0  0  0
    0.5314   23.4333   14.2382 H   0  0  0  0  0  0  0  0  0  0  0  0
    0.1190   22.6493   12.6560 H   0  0  0  0  0  0  0  0  0  0  0  0
   -0.2570   27.1520    9.5640 H   0  0  0  0  0  0  0  0  0  0  0  0
    2.7588   28.6482    9.4256 H   0  0  0  0  0  0  0  0  0  0  0  0
    3.4047   29.8726    7.3533 H   0  0  0  0  0  0  0  0  0  0  0  0
    1.7635   31.3839    6.2393 H   0  0  0  0  0  0  0  0  0  0  0  0
   -0.5157   31.6708    7.1979 H   0  0  0  0  0  0  0  0  0  0  0  0
   -2.6540   31.3543   11.5017 H   0  0  0  0  0  0  0  0  0  0  0  0
   -0.8490   31.4357   11.3626 H   0  0  0  0  0  0  0  0  0  0  0  0
   -1.9267   33.6845   11.3713 H   0  0  0  0  0  0  0  0  0  0  0  0
   -1.0073   33.3429    9.8665 H   0  0  0  0  0  0  0  0  0  0  0  0
   -2.8006   33.2389    9.8665 H   0  0  0  0  0  0  0  0  0  0  0  0
    2.6340   25.9000   12.6800 H   0  0  0  0  0  0  0  0  0  0  0  0
    3.4620   25.0840   11.4290 H   0  0  0  0  0  0  0  0  0  0  0  0
   -2.9553   25.6755   14.9069 H   0  0  0  0  0  0  0  0  0  0  0  0
   -3.6184   24.5522   13.6558 H   0  0  0  0  0  0  0  0  0  0  0  0
  1  2  1  0
  2  3  1  0
  3  4  1  0
  4  5  1  0
  5  6  1  0
  6  7  2  0
  7  8  1  0
  8  9  1  0
  9 10  1  0
 10 11  1  0
 11 12  2  0
 11 13  1  0
 13 14  2  0
 14 15  1  0
 15 16  2  0
 16 17  1  0
 17 18  2  0
 18 19  1  0
 19 20  2  0
 19 21  2  0
 19 22  1  0
 22 23  1  0
  9 24  2  0
 24 25  1  0
 25 26  1  0
 25 27  2  0
  7 28  1  0
 28  3  1  0
 24  6  1  0
 18 13  1  0
  1 29  1  0
  1 30  1  0
  1 31  1  0
  2 32  1  0
  2 33  1  0
  3 34  1  1
  4 35  1  0
  4 36  1  0
  5 37  1  0
  5 38  1  0
 10 39  1  0
 14 40  1  0
 15 41  1  0
 16 42  1  0
 17 43  1  0
 22 44  1  0
 22 45  1  0
 23 46  1  0
 23 47  1  0
 23 48  1  0
 26 49  1  0
 26 50  1  0
 28 51  1  0
 28 52  1  0
M  CHG  1   3   1
M  END
>  <vina_affinity>  (1) 
-8.481

$$$$
dec_C02794117
     RDKit          3D

 51 53  0  0  0  0  0  0  0  0999 V2000
    1.1080   24.5660   11.7590 C   0  0  0  0  0  0  0  0  0  0  0  0
    0.3540   23.3670   11.2120 C   0  0  0  0  0  0  0  0  0  0  0  0
   -0.8340   23.1160   11.9590 O   0  0  0  0  0  0  0  0  0  0  0  0
   -0.7500   22.5970   13.2250 C   0  0  0  0  0  0  0  0  0  0  0  0
   -0.1930   21.3510   13.5360 C   0  0  0  0  0  0  0  0  0  0  0  0
   -0.0270   20.9580   14.8670 C   0  0  0  0  0  0  0  0  0  0  0  0
   -0.4010   21.8080   15.9020 C   0  0  0  0  0  0  0  0  0  0  0  0
   -0.9690   23.0460   15.6090 C   0  0  0  0  0  0  0  0  0  0  0  0
   -1.1870   23.4280   14.2790 C   0  0  0  0  0  0  0  0  0  0  0  0
   -1.7680   24.7000   14.0620 N   0  0  0  0  0  0  0  0  0  0  0  0
   -3.0490   25.0960   14.4150 C   0  0  0  0  0  0  0  0  0  0  0  0
   -4.0670   24.4210   15.5550 S   0  0  0  0  0  0  0  0  0  0  0  0
   -3.4470   26.2500   13.7650 N   0  0  0  0  0  0  0  0  0  0  0  0
   -2.9040   26.5390   12.4920 N   0  0  0  0  0  0  0  0  0  0  0  0
   -1.8530   27.4420   12.4410 C   0  0  0  0  0  0  0  0  0  0  0  0
   -1.2800   27.8280   13.4600 O   0  0  0  0  0  0  0  0  0  0  0  0
   -1.5030   27.9120   11.1110 C   0  0  0  0  0  0  0  0  0  0  0  0
   -0.8730   27.2430   10.0280 C   0  0  0  0  0  0  0  0  0  0  0  0
   -0.7350   28.0080    8.9400 N   0  0  0  0  0  0  0  0  0  0  0  0
   -1.2280   29.1880    9.3430 N   0  0  0  0  0  0  0  0  0  0  0  0
   -1.7420   29.1760   10.6070 C   0  0  0  0  0  0  0  0  0  0  0  0
   -2.3180   30.2840   11.1260 N   0  0  0  0  0  0  0  0  0  0  0  0
   -2.8050   31.3830   10.3000 C   0  0  1  0  0  0  0  0  0  0  0  0
   -2.2700   32.7070   10.8370 C   0  0  0  0  0  0  0  0  0  0  0  0
   -2.5240   31.1730    8.8020 C   0  0  0  0  0  0  0  0  0  0  0  0
   -1.2660   30.3500    8.4810 C   0  0  1  0  0  0  0  0  0  0  0  0
    0.0270   31.1210    8.6040 C   0  0  0  0  0  0  0  0  0  0  0  0
    0.8640   30.7870    7.5850 F   0  0  0  0  0  0  0  0  0  0  0  0
    0.6880   30.8220    9.7470 F   0  0  0  0  0  0  0  0  0  0  0  0
   -0.1190   32.4590    8.5640 F   0  0  0  0  0  0  0  0  0  0  0  0
    1.0912   24.5393   12.8585 H   0  0  0  0  0  0  0  0  0  0  0  0
    2.1498   24.5356   11.4074 H   0  0  0  0  0  0  0  0  0  0  0  0
    0.6292   25.4918   11.4074 H   0  0  0  0  0  0  0  0  0  0  0  0
    0.0834   23.5619   10.1638 H   0  0  0  0  0  0  0  0  0  0  0  0
    1.0049   22.4836   11.2887 H   0  0  0  0  0  0  0  0  0  0  0  0
    0.1169   20.6750   12.7255 H   0  0  0  0  0  0  0  0  0  0  0  0
    0.4016   19.9714   15.0969 H   0  0  0  0  0  0  0  0  0  0  0  0
   -0.2490   21.5041   16.9482 H   0  0  0  0  0  0  0  0  0  0  0  0
   -1.2478   23.7272   16.4265 H   0  0  0  0  0  0  0  0  0  0  0  0
   -1.1320   25.4880   14.0890 H   0  0  0  0  0  0  0  0  0  0  0  0
   -4.4060   26.5690   13.9160 H   0  0  0  0  0  0  0  0  0  0  0  0
   -3.5720   26.4990   11.7250 H   0  0  0  0  0  0  0  0  0  0  0  0
   -0.5322   26.1984   10.0792 H   0  0  0  0  0  0  0  0  0  0  0  0
   -2.7160   30.2280   12.0710 H   0  0  0  0  0  0  0  0  0  0  0  0
   -3.9024   31.4111   10.3700 H   0  0  0  0  0  0  0  0  0  0  0  0
   -2.2782   32.6868   11.9368 H   0  0  0  0  0  0  0  0  0  0  0  0
   -1.2403   32.8579   10.4807 H   0  0  0  0  0  0  0  0  0  0  0  0
   -2.9058   33.5309   10.4807 H   0  0  0  0  0  0  0  0  0  0  0  0
   -3.3900   30.6563    8.3625 H   0  0  0  0  0  0  0  0  0  0  0  0
   -2.3494   32.1741    8.3810 H   0  0  0  0  0  0  0  0  0  0  0  0
   -1.3424   30.0597    7.4227 H   0  0  0  0  0  0  0  0  0  0  0  0
  1  2  1  0
  2  3  1  0
  3  4  1  0
  4  5  2  0
  5  6  1  0
  6  7  2  0
  7  8  1  0
  8  9  2  0
  9 10  1  0
 10 11  1  0
 11 12  2  0
 11 13  1  0
 13 14  1  0
 14 15  1  0
 15 16  2  0
 15 17  1  0
 17 18  1  0
 18 19  2  0
 19 20  1  0
 20 21  1  0
 21 22  1  0
 22 23  1  0
 23 24  1  0
 23 25  1  0
 25 26  1  0
 26 27  1  0
 27 28  1  0
 27 29  1  0
 27 30  1  0
  9  4  1  0
 21 17  2  0
 26 20  1  0
  1 31  1  0
  1 32  1  0
  1 33  1  0
  2 34  1  0
  2 35  1  0
  5 36  1  0
  6 37  1  0
  7 38  1  0
  8 39  1  0
 10 40  1  0
 13 41  1  0
 14 42  1  0
 18 43  1  0
 22 44  1  0
 23 45  1  6
 24 46  1  0
 24 47  1  0
 24 48  1  0
 25 49  1  0
 25 50  1  0
 26 51  1  6
M  END
>  <vina_affinity>  (1) 
-8.602

$$$$
dec_C36205746
     RDKit          3D

 55 57  0  0  0  0  0  0  0  0999 V2000
   -0.4340   22.8200   15.7170 C   0  0  0  0  0  0  0  0  0  0  0  0
   -0.4960   22.8910   14.2030 C   0  0  0  0  0  0  0  0  0  0  0  0
   -0.0840   24.2530   13.6440 N   0  0  2  0  0  0  0  0  0  0  0  0
   -0.7730   25.4480   14.3150 C   0  0  0  0  0  0  0  0  0  0  0  0
   -1.1580   26.5550   13.3360 C   0  0  0  0  0  0  0  0  0  0  0  0
   -2.3580   26.5800   12.8450 N   0  0  0  0  0  0  0  0  0  0  0  0
   -2.6090   27.6190   12.0040 C   0  0  0  0  0  0  0  0  0  0  0  0
   -4.1370   27.8170   11.2740 S   0  0  0  0  0  0  0  0  0  0  0  0
   -3.6310   29.2360   10.4610 C   0  0  0  0  0  0  0  0  0  0  0  0
   -2.3150   29.5580   10.7360 C   0  0  0  0  0  0  0  0  0  0  0  0
   -1.7040   30.7370   10.1400 C   0  0  0  0  0  0  0  0  0  0  0  0
   -2.0780   31.9990   10.6270 C   0  0  0  0  0  0  0  0  0  0  0  0
   -1.5200   33.1580   10.0860 C   0  0  0  0  0  0  0  0  0  0  0  0
   -0.5870   33.0630    9.0580 C   0  0  0  0  0  0  0  0  0  0  0  0
   -0.2090   31.8120    8.5680 C   0  0  0  0  0  0  0  0  0  0  0  0
   -0.7630   30.6340    9.0970 C   0  0  0  0  0  0  0  0  0  0  0  0
   -0.3300   29.3070    8.5390 C   0  0  0  0  0  0  0  0  0  0  0  0
   -1.7270   28.6170   11.6390 C   0  0  0  0  0  0  0  0  0  0  0  0
   -0.3980   28.5630   12.2000 C   0  0  0  0  0  0  0  0  0  0  0  0
    0.5100   29.3540   11.9760 O   0  0  0  0  0  0  0  0  0  0  0  0
   -0.1970   27.5020   13.0620 N   0  0  0  0  0  0  0  0  0  0  0  0
   -0.1960   24.2840   12.1280 C   0  0  0  0  0  0  0  0  0  0  0  0
    1.1400   24.5310   11.3820 C   0  0  2  0  0  0  0  0  0  0  0  0
    1.9970   25.1930   12.3090 O   0  0  0  0  0  0  0  0  0  0  0  0
    1.0210   25.3440   10.0720 C   0  0  0  0  0  0  0  0  0  0  0  0
    1.8890   26.6070   10.1200 C   0  0  0  0  0  0  0  0  0  0  0  0
   -0.4220   25.7370    9.7430 C   0  0  0  0  0  0  0  0  0  0  0  0
   -1.0998   23.5825   16.1474 H   0  0  0  0  0  0  0  0  0  0  0  0
   -0.7551   21.8223   16.0507 H   0  0  0  0  0  0  0  0  0  0  0  0
    0.5979   23.0038   16.0507 H   0  0  0  0  0  0  0  0  0  0  0  0
    0.1775   22.1258   13.7897 H   0  0  0  0  0  0  0  0  0  0  0  0
   -1.5432   22.7225   13.9116 H   0  0  0  0  0  0  0  0  0  0  0  0
    0.9130   24.3070   13.8790 H   0  0  0  0  0  0  0  0  0  0  0  0
   -1.6862   25.0895   14.8125 H   0  0  0  0  0  0  0  0  0  0  0  0
   -0.0537   25.8798   15.0265 H   0  0  0  0  0  0  0  0  0  0  0  0
   -4.2794   29.8247    9.7954 H   0  0  0  0  0  0  0  0  0  0  0  0
   -2.8152   32.0750   11.4398 H   0  0  0  0  0  0  0  0  0  0  0  0
   -1.8170   34.1445   10.4713 H   0  0  0  0  0  0  0  0  0  0  0  0
   -0.1464   33.9758    8.6306 H   0  0  0  0  0  0  0  0  0  0  0  0
    0.5319   31.7474    7.7575 H   0  0  0  0  0  0  0  0  0  0  0  0
   -0.1050   28.6174    9.3659 H   0  0  0  0  0  0  0  0  0  0  0  0
   -1.1379   28.8877    7.9214 H   0  0  0  0  0  0  0  0  0  0  0  0
    0.5697   29.4449    7.9214 H   0  0  0  0  0  0  0  0  0  0  0  0
    0.7520   27.4540   13.4090 H   0  0  0  0  0  0  0  0  0  0  0  0
   -0.6000   23.3166   11.7950 H   0  0  0  0  0  0  0  0  0  0  0  0
   -0.8490   25.1347   11.8833 H   0  0  0  0  0  0  0  0  0  0  0  0
    1.5348   23.5597   11.0494 H   0  0  0  0  0  0  0  0  0  0  0  0
    1.5040   25.3950   13.1260 H   0  0  0  0  0  0  0  0  0  0  0  0
    1.3807   24.6774    9.2744 H   0  0  0  0  0  0  0  0  0  0  0  0
    2.0782   26.8823   11.1681 H   0  0  0  0  0  0  0  0  0  0  0  0
    2.8460   26.4137    9.6132 H   0  0  0  0  0  0  0  0  0  0  0  0
    1.3656   27.4311    9.6132 H   0  0  0  0  0  0  0  0  0  0  0  0
   -0.9825   25.8897   10.6771 H   0  0  0  0  0  0  0  0  0  0  0  0
   -0.4240   26.6684    9.1578 H   0  0  0  0  0  0  0  0  0  0  0  0
   -0.8960   24.9352    9.1578 H   0  0  0  0  0  0  0  0  0  0  0  0
  1  2  1  0
  2  3  1  0
  3  4  1  0
  4  5  1  0
  5  6  2  0
  6  7  1  0
  7  8  1  0
  8  9  1  0
  9 10  2  0
 10 11  1  0
 11 12  2  0
 12 13  1  0
 13 14  2  0
 14 15  1  0
 15 16  2  0
 16 17  1  0
 10 18  1  0
 18 19  1  0
 19 20  2  0
 19 21  1  0
  3 22  1  0
 22 23  1  0
 23 24  1  0
 23 25  1  0
 25 26  1  0
 25 27  1  0
 21  5  1  0
 18  7  2  0
 16 11  1  0
  1 28  1  0
  1 29  1  0
  1 30  1  0
  2 31  1  0
  2 32  1  0
  3 33  1  6
  4 34  1  0
  4 35  1  0
  9 36  1  0
 12 37  1  0
 13 38  1  0
 14 39  1  0
 15 40  1  0
 17 41  1  0
 17 42  1  0
 17 43  1  0
 21 44  1  0
 22 45  1  0
 22 46  1  0
 23 47  1  6
 24 48  1  0
 25 49  1  0
 26 50  1  0
 26 51  1  0
 26 52  1  0
 27 53  1  0
 27 54  1  0
 27 55  1  0
M  CHG  1   3   1
M  END
>  <vina_affinity>  (1) 
-7.461

$$$$
dec_C39675294
     RDKit          3D

 72 75  0  0  0  0  0  0  0  0999 V2000
   -8.4930   23.3140   17.9560 C   0  0  0  0  0  0  0  0  0  0  0  0
   -8.0490   22.6450   16.7820 O   0  0  0  0  0  0  0  0  0  0  0  0
   -6.8200   22.0480   16.8370 C   0  0  0  0  0  0  0  0  0  0  0  0
   -6.6920   20.9040   16.0480 C   0  0  0  0  0  0  0  0  0  0  0  0
   -5.4890   20.1950   16.0090 C   0  0  0  0  0  0  0  0  0  0  0  0
   -4.3870   20.6270   16.7580 C   0  0  0  0  0  0  0  0  0  0  0  0
   -3.0840   19.8650   16.7120 C   0  0  0  0  0  0  0  0  0  0  0  0
   -2.4470   19.8400   15.3160 C   0  0  0  0  0  0  0  0  0  0  0  0
   -1.2360   20.7800   15.1540 C   0  0  2  0  0  0  0  0  0  0  0  0
   -0.8360   21.3590   16.5120 C   0  0  0  0  0  0  0  0  0  0  0  0
   -1.5520   21.8930   14.2540 N   0  0  0  0  0  0  0  0  0  0  0  0
   -0.5910   22.5580   13.5270 C   0  0  0  0  0  0  0  0  0  0  0  0
    0.6120   22.3470   13.6300 O   0  0  0  0  0  0  0  0  0  0  0  0
   -1.1410   23.6770   12.6620 C   0  0  2  0  0  0  0  0  0  0  0  0
   -0.0980   24.1790   11.6560 C   0  0  0  0  0  0  0  0  0  0  0  0
   -0.4440   25.5800   11.4520 N   0  0  0  0  0  0  0  0  0  0  0  0
    0.1350   26.4680   10.5650 C   0  0  0  0  0  0  0  0  0  0  0  0
    1.3320   26.7400   10.6640 O   0  0  0  0  0  0  0  0  0  0  0  0
   -0.7850   27.0630    9.5050 C   0  0  0  0  0  0  0  0  0  0  0  0
   -0.9100   28.5670    9.5710 C   0  0  0  0  0  0  0  0  0  0  0  0
   -0.0600   29.3850    8.8110 C   0  0  0  0  0  0  0  0  0  0  0  0
   -0.1820   30.7750    8.8620 C   0  0  0  0  0  0  0  0  0  0  0  0
   -1.1580   31.3550    9.6700 C   0  0  0  0  0  0  0  0  0  0  0  0
   -1.3110   33.0680    9.7310 Cl  0  0  0  0  0  0  0  0  0  0  0  0
   -2.0120   30.5580   10.4260 C   0  0  0  0  0  0  0  0  0  0  0  0
   -1.8920   29.1660   10.3750 C   0  0  0  0  0  0  0  0  0  0  0  0
   -1.5370   25.9890   12.3030 C   0  0  0  0  0  0  0  0  0  0  0  0
   -1.5320   24.9650   13.4600 C   0  0  0  0  0  0  0  0  0  0  0  0
   -2.9250   24.8700   14.1270 C   0  0  0  0  0  0  0  0  0  0  0  0
   -3.0610   25.6770   15.4200 C   0  0  0  0  0  0  0  0  0  0  0  0
   -2.2450   26.9160   15.3400 N   0  0  0  0  0  0  0  0  0  0  0  0
   -0.7720   26.6860   15.2250 C   0  0  0  0  0  0  0  0  0  0  0  0
   -0.4750   25.3630   14.5240 C   0  0  0  0  0  0  0  0  0  0  0  0
   -4.5210   21.7740   17.5490 C   0  0  0  0  0  0  0  0  0  0  0  0
   -5.7280   22.4810   17.5870 C   0  0  0  0  0  0  0  0  0  0  0  0
   -8.1341   22.7732   18.8441 H   0  0  0  0  0  0  0  0  0  0  0  0
   -8.0958   24.3397   17.9659 H   0  0  0  0  0  0  0  0  0  0  0  0
   -9.5925   23.3464   17.9659 H   0  0  0  0  0  0  0  0  0  0  0  0
   -7.5477   20.5568   15.4503 H   0  0  0  0  0  0  0  0  0  0  0  0
   -5.4066   19.2920   15.3863 H   0  0  0  0  0  0  0  0  0  0  0  0
   -2.3776   20.3379   17.4101 H   0  0  0  0  0  0  0  0  0  0  0  0
   -3.3045   18.8236   16.9893 H   0  0  0  0  0  0  0  0  0  0  0  0
   -2.1156   18.8122   15.1070 H   0  0  0  0  0  0  0  0  0  0  0  0
   -3.2157   20.1928   14.6128 H   0  0  0  0  0  0  0  0  0  0  0  0
   -0.4097   20.1901   14.7306 H   0  0  0  0  0  0  0  0  0  0  0  0
   -1.2635   20.7402   17.3147 H   0  0  0  0  0  0  0  0  0  0  0  0
    0.2605   21.3661   16.5990 H   0  0  0  0  0  0  0  0  0  0  0  0
   -1.2174   22.3871   16.5990 H   0  0  0  0  0  0  0  0  0  0  0  0
   -2.5170   21.9640   13.9590 H   0  0  0  0  0  0  0  0  0  0  0  0
   -2.0224   23.2177   12.1906 H   0  0  0  0  0  0  0  0  0  0  0  0
    0.9179   24.0838   12.0669 H   0  0  0  0  0  0  0  0  0  0  0  0
   -0.1044   23.6025   10.7192 H   0  0  0  0  0  0  0  0  0  0  0  0
   -0.3911   26.7922    8.5143 H   0  0  0  0  0  0  0  0  0  0  0  0
   -1.7888   26.6528    9.6896 H   0  0  0  0  0  0  0  0  0  0  0  0
    0.7083   28.9277    8.1702 H   0  0  0  0  0  0  0  0  0  0  0  0
    0.4901   31.4101    8.2663 H   0  0  0  0  0  0  0  0  0  0  0  0
   -2.7799   31.0221   11.0624 H   0  0  0  0  0  0  0  0  0  0  0  0
   -2.5713   28.5366   10.9686 H   0  0  0  0  0  0  0  0  0  0  0  0
   -1.3723   27.0074   12.6847 H   0  0  0  0  0  0  0  0  0  0  0  0
   -2.4979   26.0102   11.7679 H   0  0  0  0  0  0  0  0  0  0  0  0
   -3.6753   25.2372   13.4113 H   0  0  0  0  0  0  0  0  0  0  0  0
   -3.0729   23.8142   14.3979 H   0  0  0  0  0  0  0  0  0  0  0  0
   -4.1168   25.9464   15.5708 H   0  0  0  0  0  0  0  0  0  0  0  0
   -2.7050   25.0667   16.2630 H   0  0  0  0  0  0  0  0  0  0  0  0
   -2.5700   27.5040   14.5580 H   0  0  0  0  0  0  0  0  0  0  0  0
   -2.4180   27.4890   16.1790 H   0  0  0  0  0  0  0  0  0  0  0  0
   -0.3243   27.5075   14.6464 H   0  0  0  0  0  0  0  0  0  0  0  0
   -0.3444   26.6482   16.2378 H   0  0  0  0  0  0  0  0  0  0  0  0
    0.5027   25.4461   14.0269 H   0  0  0  0  0  0  0  0  0  0  0  0
   -0.4899   24.5810   15.2975 H   0  0  0  0  0  0  0  0  0  0  0  0
   -3.6672   22.1238   18.1479 H   0  0  0  0  0  0  0  0  0  0  0  0
   -5.8153   23.3823   18.2115 H   0  0  0  0  0  0  0  0  0  0  0  0
  1  2  1  0
  2  3  1  0
  3  4  2  0
  4  5  1  0
  5  6  2  0
  6  7  1  0
  7  8  1  0
  8  9  1  0
  9 10  1  0
  9 11  1  0
 11 12  1  0
 12 13  2  0
 12 14  1  0
 14 15  1  0
 15 16  1  0
 16 17  1  0
 17 18  2  0
 17 19  1  0
 19 20  1  0
 20 21  2  0
 21 22  1  0
 22 23  2  0
 23 24  1  0
 23 25  1  0
 25 26  2  0
 16 27  1  0
 27 28  1  0
 28 29  1  0
 29 30  1  0
 30 31  1  0
 31 32  1  0
 32 33  1  0
  6 34  1  0
 34 35  2  0
 35  3  1  0
 28 14  1  0
 26 20  1  0
 33 28  1  0
  1 36  1  0
  1 37  1  0
  1 38  1  0
  4 39  1  0
  5 40  1  0
  7 41  1  0
  7 42  1  0
  8 43  1  0
  8 44  1  0
  9 45  1  6
 10 46  1  0
 10 47  1  0
 10 48  1  0
 11 49  1  0
 14 50  1  6
 15 51  1  0
 15 52  1  0
 19 53  1  0
 19 54  1  0
 21 55  1  0
 22 56  1  0
 25 57  1  0
 26 58  1  0
 27 59  1  0
 27 60  1  0
 29 61  1  0
 29 62  1  0
 30 63  1  0
 30 64  1  0
 31 65  1  0
 31 66  1  0
 32 67  1  0
 32 68  1  0
 33 69  1  0
 33 70  1  0
 34 71  1  0
 35 72  1  0
M  CHG  1  31   1
M  END
>  <vina_affinity>  (1) 
-8.615

$$$$
dec_C39678270
     RDKit          3D

 73 76  0  0  0  0  0  0  0  0999 V2000
   -2.3430   19.9430   14.3330 C   0  0  0  0  0  0  0  0  0  0  0  0
   -0.9220   19.7030   13.8370 C   0  0  0  0  0  0  0  0  0  0  0  0
   -0.0520   20.9630   13.6430 C   0  0  1  0  0  0  0  0  0  0  0  0
    1.4430   20.6490   13.6460 C   0  0  0  0  0  0  0  0  0  0  0  0
   -0.4340   21.7250   12.3700 C   0  0  0  0  0  0  0  0  0  0  0  0
   -0.7700   21.1470   11.3340 O   0  0  0  0  0  0  0  0  0  0  0  0
   -0.3410   23.1040   12.3860 N   0  0  0  0  0  0  0  0  0  0  0  0
    0.1590   23.9820   11.3330 C   0  0  0  0  0  0  0  0  0  0  0  0
    0.3420   25.3410   12.0180 C   0  0  1  0  0  0  0  0  0  0  0  0
    0.1160   26.5010   11.0640 C   0  0  0  0  0  0  0  0  0  0  0  0
   -0.7460   26.4800   10.1930 O   0  0  0  0  0  0  0  0  0  0  0  0
    0.8620   27.6150   11.3580 N   0  0  0  0  0  0  0  0  0  0  0  0
    0.4760   28.9330   10.9030 C   0  0  0  0  0  0  0  0  0  0  0  0
    1.2280   29.2690    9.6260 C   0  0  0  0  0  0  0  0  0  0  0  0
    2.4280   28.5680    9.3820 C   0  0  0  0  0  0  0  0  0  0  0  0
    3.1560   28.7670    8.2120 C   0  0  0  0  0  0  0  0  0  0  0  0
    2.6920   29.6660    7.2650 C   0  0  0  0  0  0  0  0  0  0  0  0
    1.4980   30.3610    7.4860 C   0  0  0  0  0  0  0  0  0  0  0  0
    0.7390   30.1880    8.6600 C   0  0  0  0  0  0  0  0  0  0  0  0
   -0.4640   30.8910    8.8650 N   0  0  0  0  0  0  0  0  0  0  0  0
   -0.5640   31.7950   10.0260 C   0  0  0  0  0  0  0  0  0  0  0  0
   -1.8960   32.5370    9.9720 C   0  0  0  0  0  0  0  0  0  0  0  0
   -3.0740   31.5690   10.0860 C   0  0  0  0  0  0  0  0  0  0  0  0
   -2.6830   30.1320    9.7450 C   0  0  0  0  0  0  0  0  0  0  0  0
   -1.6800   30.0760    8.5940 C   0  0  0  0  0  0  0  0  0  0  0  0
   -0.6930   25.3010   13.1900 C   0  0  0  0  0  0  0  0  0  0  0  0
   -2.1440   25.6070   12.7090 C   0  0  0  0  0  0  0  0  0  0  0  0
   -3.1580   25.7070   13.8380 C   0  0  0  0  0  0  0  0  0  0  0  0
   -2.6610   26.6930   14.8370 N   0  0  0  0  0  0  0  0  0  0  0  0
   -1.3600   26.3090   15.4490 C   0  0  0  0  0  0  0  0  0  0  0  0
   -0.3050   26.2360   14.3530 C   0  0  0  0  0  0  0  0  0  0  0  0
   -0.5720   23.8260   13.6170 C   0  0  0  0  0  0  0  0  0  0  0  0
   -2.3521   19.9445   15.4330 H   0  0  0  0  0  0  0  0  0  0  0  0
   -2.7017   20.9144   13.9620 H   0  0  0  0  0  0  0  0  0  0  0  0
   -3.0008   19.1432   13.9620 H   0  0  0  0  0  0  0  0  0  0  0  0
   -0.4160   19.0535   14.5664 H   0  0  0  0  0  0  0  0  0  0  0  0
   -1.0279   19.2584   12.8364 H   0  0  0  0  0  0  0  0  0  0  0  0
   -0.2560   21.6092   14.5094 H   0  0  0  0  0  0  0  0  0  0  0  0
    1.7998   20.5741   14.6838 H   0  0  0  0  0  0  0  0  0  0  0  0
    1.6182   19.6945   13.1282 H   0  0  0  0  0  0  0  0  0  0  0  0
    1.9874   21.4524   13.1282 H   0  0  0  0  0  0  0  0  0  0  0  0
    1.1181   23.6120   10.9416 H   0  0  0  0  0  0  0  0  0  0  0  0
   -0.5264   24.0363   10.4744 H   0  0  0  0  0  0  0  0  0  0  0  0
    1.3686   25.5048   12.3776 H   0  0  0  0  0  0  0  0  0  0  0  0
    1.5700   27.6050   12.0840 H   0  0  0  0  0  0  0  0  0  0  0  0
   -0.6062   28.9506   10.7066 H   0  0  0  0  0  0  0  0  0  0  0  0
    0.7204   29.6744   11.6780 H   0  0  0  0  0  0  0  0  0  0  0  0
    2.7954   27.8505   10.1305 H   0  0  0  0  0  0  0  0  0  0  0  0
    4.0920   28.2150    8.0407 H   0  0  0  0  0  0  0  0  0  0  0  0
    3.2625   29.8332    6.3395 H   0  0  0  0  0  0  0  0  0  0  0  0
    1.1409   31.0643    6.7193 H   0  0  0  0  0  0  0  0  0  0  0  0
   -0.5072   31.2084   10.9548 H   0  0  0  0  0  0  0  0  0  0  0  0
    0.2634   32.5195   10.0021 H   0  0  0  0  0  0  0  0  0  0  0  0
   -1.9403   33.2554   10.8038 H   0  0  0  0  0  0  0  0  0  0  0  0
   -1.9655   33.0574    9.0054 H   0  0  0  0  0  0  0  0  0  0  0  0
   -3.4547   31.5960   11.1177 H   0  0  0  0  0  0  0  0  0  0  0  0
   -3.8407   31.8878    9.3646 H   0  0  0  0  0  0  0  0  0  0  0  0
   -2.2324   29.6651   10.6332 H   0  0  0  0  0  0  0  0  0  0  0  0
   -3.5911   29.5946    9.4342 H   0  0  0  0  0  0  0  0  0  0  0  0
   -1.3775   29.0299    8.4388 H   0  0  0  0  0  0  0  0  0  0  0  0
   -2.1699   30.4890    7.6999 H   0  0  0  0  0  0  0  0  0  0  0  0
   -2.1346   26.5635   12.1659 H   0  0  0  0  0  0  0  0  0  0  0  0
   -2.4547   24.7644   12.0738 H   0  0  0  0  0  0  0  0  0  0  0  0
   -4.1265   26.0412   13.4377 H   0  0  0  0  0  0  0  0  0  0  0  0
   -3.2891   24.7238   14.3135 H   0  0  0  0  0  0  0  0  0  0  0  0
   -3.3680   26.8140   15.5750 H   0  0  0  0  0  0  0  0  0  0  0  0
   -2.5710   27.6190   14.3860 H   0  0  0  0  0  0  0  0  0  0  0  0
   -1.0661   27.0615   16.1956 H   0  0  0  0  0  0  0  0  0  0  0  0
   -1.4537   25.3309   15.9436 H   0  0  0  0  0  0  0  0  0  0  0  0
   -0.1504   27.2478   13.9501 H   0  0  0  0  0  0  0  0  0  0  0  0
    0.6082   25.8255   14.8085 H   0  0  0  0  0  0  0  0  0  0  0  0
    0.2717   23.6909   14.3098 H   0  0  0  0  0  0  0  0  0  0  0  0
   -1.4695   23.4711   14.1449 H   0  0  0  0  0  0  0  0  0  0  0  0
  1  2  1  0
  2  3  1  0
  3  4  1  0
  3  5  1  0
  5  6  2  0
  5  7  1  0
  7  8  1  0
  8  9  1  0
  9 10  1  0
 10 11  2  0
 10 12  1  0
 12 13  1  0
 13 14  1  0
 14 15  2  0
 15 16  1  0
 16 17  2  0
 17 18  1  0
 18 19  2  0
 19 20  1  0
 20 21  1  0
 21 22  1  0
 22 23  1  0
 23 24  1  0
 24 25  1  0
  9 26  1  0
 26 27  1  0
 27 28  1  0
 28 29  1  0
 29 30  1  0
 30 31  1  0
 26 32  1  0
 32  7  1  0
 19 14  1  0
 25 20  1  0
 31 26  1  0
  1 33  1  0
  1 34  1  0
  1 35  1  0
  2 36  1  0
  2 37  1  0
  3 38  1  1
  4 39  1  0
  4 40  1  0
  4 41  1  0
  8 42  1  0
  8 43  1  0
  9 44  1  1
 12 45  1  0
 13 46  1  0
 13 47  1  0
 15 48  1  0
 16 49  1  0
 17 50  1  0
 18 51  1  0
 21 52  1  0
 21 53  1  0
 22 54  1  0
 22 55  1  0
 23 56  1  0
 23 57  1  0
 24 58  1  0
 24 59  1  0
 25 60  1  0
 25 61  1  0
 27 62  1  0
 27 63  1  0
 28 64  1  0
 28 65  1  0
 29 66  1  0
 29 67  1  0
 30 68  1  0
 30 69  1  0
 31 70  1  0
 31 71  1  0
 32 72  1  0
 32 73  1  0
M  CHG  1  29   1
M  END
>  <vina_affinity>  (1) 
-8.561

$$$$
dec_C09329481
     RDKit          3D

 54 58  0  0  0  0  0  0  0  0999 V2000
   -1.3440   26.6980   15.4450 C   0  0  0  0  0  0  0  0  0  0  0  0
   -0.3970   26.2100   14.4960 O   0  0  0  0  0  0  0  0  0  0  0  0
   -0.8370   26.1440   13.1960 C   0  0  0  0  0  0  0  0  0  0  0  0
   -1.0920   27.3010   12.4460 C   0  0  0  0  0  0  0  0  0  0  0  0
   -1.3890   27.1960   11.0810 C   0  0  0  0  0  0  0  0  0  0  0  0
   -1.6570   28.4090   10.2980 N   0  0  0  0  0  0  0  0  0  0  0  0
   -2.6080   29.1210   10.6480 O   0  0  0  0  0  0  0  0  0  0  0  0
   -0.9130   28.6450    9.3360 O   0  0  0  0  0  0  0  0  0  0  0  0
   -1.4110   25.9470   10.4560 C   0  0  0  0  0  0  0  0  0  0  0  0
   -1.1450   24.7960   11.2040 C   0  0  0  0  0  0  0  0  0  0  0  0
   -0.8770   24.8680   12.5840 C   0  0  0  0  0  0  0  0  0  0  0  0
   -0.6430   23.6770   13.3240 N   0  0  0  0  0  0  0  0  0  0  0  0
    0.4700   22.8500   13.1740 C   0  0  0  0  0  0  0  0  0  0  0  0
    1.5800   23.0340   12.7110 O   0  0  0  0  0  0  0  0  0  0  0  0
    0.0630   21.5800   13.8280 C   0  0  1  0  0  0  0  0  0  0  0  0
    0.9930   20.6000   14.4810 C   0  0  2  0  0  0  0  0  0  0  0  0
    1.6970   19.6100   13.5540 C   0  0  0  0  0  0  0  0  0  0  0  0
    0.7630   18.9580   12.5690 C   0  0  0  0  0  0  0  0  0  0  0  0
    1.0100   19.2000   11.2600 N   0  0  0  0  0  0  0  0  0  0  0  0
   -0.1410   18.2150   12.9450 O   0  0  0  0  0  0  0  0  0  0  0  0
    0.0160   19.9260   15.4630 N   0  0  0  0  0  0  0  0  0  0  0  0
   -1.1220   20.9550   15.7780 C   0  0  2  0  0  0  0  0  0  0  0  0
   -1.1450   21.2190   17.3130 C   0  0  0  0  0  0  0  0  0  0  0  0
   -0.1720   21.5340   17.9760 O   0  0  0  0  0  0  0  0  0  0  0  0
   -2.4160   20.9290   17.7670 N   0  0  0  0  0  0  0  0  0  0  0  0
   -3.2210   20.4680   16.7340 C   0  0  0  0  0  0  0  0  0  0  0  0
   -4.5350   20.0640   16.8360 C   0  0  0  0  0  0  0  0  0  0  0  0
   -5.1550   19.6090   15.6720 C   0  0  0  0  0  0  0  0  0  0  0  0
   -4.4550   19.5680   14.4540 C   0  0  0  0  0  0  0  0  0  0  0  0
   -3.1220   19.9850   14.3730 C   0  0  0  0  0  0  0  0  0  0  0  0
   -2.5070   20.4390   15.5290 C   0  0  0  0  0  0  0  0  0  0  0  0
   -0.6260   22.1680   15.0390 C   0  0  2  0  0  0  0  0  0  0  0  0
   -1.4390   23.2260   14.3780 C   0  0  0  0  0  0  0  0  0  0  0  0
   -2.5250   23.5970   14.7780 O   0  0  0  0  0  0  0  0  0  0  0  0
   -0.9742   26.5074   16.4633 H   0  0  0  0  0  0  0  0  0  0  0  0
   -1.4826   27.7798   15.3017 H   0  0  0  0  0  0  0  0  0  0  0  0
   -2.3054   26.1830   15.3017 H   0  0  0  0  0  0  0  0  0  0  0  0
   -1.0589   28.2890   12.9284 H   0  0  0  0  0  0  0  0  0  0  0  0
   -1.6362   25.8694    9.3821 H   0  0  0  0  0  0  0  0  0  0  0  0
   -1.1452   23.8159   10.7047 H   0  0  0  0  0  0  0  0  0  0  0  0
   -0.3818   20.9803   13.0203 H   0  0  0  0  0  0  0  0  0  0  0  0
    1.8746   21.0804   14.9304 H   0  0  0  0  0  0  0  0  0  0  0  0
    2.4766   20.1477   12.9944 H   0  0  0  0  0  0  0  0  0  0  0  0
    2.1186   18.8129   14.1840 H   0  0  0  0  0  0  0  0  0  0  0  0
    1.7870   19.7550   10.9180 H   0  0  0  0  0  0  0  0  0  0  0  0
    0.4290   18.7510   10.5580 H   0  0  0  0  0  0  0  0  0  0  0  0
   -0.4210   19.0890   15.0230 H   0  0  0  0  0  0  0  0  0  0  0  0
    0.4750   19.6210   16.3350 H   0  0  0  0  0  0  0  0  0  0  0  0
   -2.7040   21.0090   18.7350 H   0  0  0  0  0  0  0  0  0  0  0  0
   -5.0723   20.0989   17.7952 H   0  0  0  0  0  0  0  0  0  0  0  0
   -6.2036   19.2786   15.7079 H   0  0  0  0  0  0  0  0  0  0  0  0
   -4.9634   19.2021   13.5498 H   0  0  0  0  0  0  0  0  0  0  0  0
   -2.5770   19.9534   13.4180 H   0  0  0  0  0  0  0  0  0  0  0  0
   -0.1590   22.7067   15.8767 H   0  0  0  0  0  0  0  0  0  0  0  0
  1  2  1  0
  2  3  1  0
  3  4  2  0
  4  5  1  0
  5  6  1  0
  6  7  2  0
  6  8  1  0
  5  9  2  0
  9 10  1  0
 10 11  2  0
 11 12  1  0
 12 13  1  0
 13 14  2  0
 13 15  1  0
 15 16  1  0
 16 17  1  0
 17 18  1  0
 18 19  1  0
 18 20  2  0
 16 21  1  0
 22 21  1  1
 22 23  1  0
 23 24  2  0
 23 25  1  0
 25 26  1  0
 26 27  2  0
 27 28  1  0
 28 29  2  0
 29 30  1  0
 30 31  2  0
 22 32  1  0
 32 33  1  0
 33 34  2  0
 11  3  1  0
 33 12  1  0
 32 15  1  0
 31 22  1  0
 31 26  1  0
  1 35  1  0
  1 36  1  0
  1 37  1  0
  4 38  1  0
  9 39  1  0
 10 40  1  0
 15 41  1  6
 16 42  1  1
 17 43  1  0
 17 44  1  0
 19 45  1  0
 19 46  1  0
 21 47  1  0
 21 48  1  0
 25 49  1  0
 27 50  1  0
 28 51  1  0
 29 52  1  0
 30 53  1  0
 32 54  1  1
M  CHG  3   6   1   8  -1  21   1
M  END
>  <vina_affinity>  (1) 
-7.770

$$$$
dec_C16591131
     RDKit          3D

 65 67  0  0  0  0  0  0  0  0999 V2000
    3.4210   28.2450    8.9600 C   0  0  0  0  0  0  0  0  0  0  0  0
    3.0550   26.8170    9.3360 C   0  0  0  0  0  0  0  0  0  0  0  0
    2.2290   26.7200   10.6200 C   0  0  0  0  0  0  0  0  0  0  0  0
    1.3140   27.9300   10.8400 C   0  0  0  0  0  0  0  0  0  0  0  0
   -0.0200   27.5410   11.3260 N   0  0  0  0  0  0  0  0  0  0  0  0
   -1.0560   28.4620   11.4420 C   0  0  0  0  0  0  0  0  0  0  0  0
   -1.4130   28.9700   12.5140 O   0  0  0  0  0  0  0  0  0  0  0  0
   -1.7470   28.9440   10.1620 C   0  0  0  0  0  0  0  0  0  0  0  0
   -1.0970   30.2530    9.6780 N   0  0  2  0  0  0  0  0  0  0  0  0
   -2.0930   31.3520    9.4400 C   0  0  0  0  0  0  0  0  0  0  0  0
   -1.3490   32.6810    9.3390 C   0  0  0  0  0  0  0  0  0  0  0  0
    0.0390   32.5700    8.6960 C   0  0  0  0  0  0  0  0  0  0  0  0
    0.1350   31.3480    7.7840 C   0  0  1  0  0  0  0  0  0  0  0  0
    1.4780   31.2440    7.0910 C   0  0  0  0  0  0  0  0  0  0  0  0
    2.4680   31.6710    7.8980 F   0  0  0  0  0  0  0  0  0  0  0  0
    1.5010   31.9740    5.9610 F   0  0  0  0  0  0  0  0  0  0  0  0
    1.7290   29.9580    6.7680 F   0  0  0  0  0  0  0  0  0  0  0  0
   -0.1040   30.0530    8.5590 C   0  0  0  0  0  0  0  0  0  0  0  0
   -0.2620   26.2230   11.7740 C   0  0  0  0  0  0  0  0  0  0  0  0
   -0.3200   25.7960   13.0630 C   0  0  0  0  0  0  0  0  0  0  0  0
   -0.0530   26.6820   14.1060 N   0  0  0  0  0  0  0  0  0  0  0  0
   -0.6220   24.4580   13.3400 N   0  0  0  0  0  0  0  0  0  0  0  0
   -0.8110   23.9830   14.7200 C   0  0  0  0  0  0  0  0  0  0  0  0
   -2.2650   23.8760   15.1280 C   0  0  0  0  0  0  0  0  0  0  0  0
   -3.1560   24.9360   14.9040 C   0  0  0  0  0  0  0  0  0  0  0  0
   -4.4950   24.8290   15.2810 C   0  0  0  0  0  0  0  0  0  0  0  0
   -4.9620   23.6600   15.8760 C   0  0  0  0  0  0  0  0  0  0  0  0
   -4.0920   22.5900   16.0860 C   0  0  0  0  0  0  0  0  0  0  0  0
   -2.7530   22.6930   15.7080 C   0  0  0  0  0  0  0  0  0  0  0  0
   -0.7710   23.5020   12.3410 C   0  0  0  0  0  0  0  0  0  0  0  0
   -1.1290   22.3420   12.5330 O   0  0  0  0  0  0  0  0  0  0  0  0
   -0.5250   23.9130   11.0700 N   0  0  0  0  0  0  0  0  0  0  0  0
   -0.6030   25.2140   10.7090 C   0  0  0  0  0  0  0  0  0  0  0  0
   -0.9880   25.5620    9.5910 O   0  0  0  0  0  0  0  0  0  0  0  0
    3.5728   28.8375    9.8743 H   0  0  0  0  0  0  0  0  0  0  0  0
    4.3474   28.2420    8.3669 H   0  0  0  0  0  0  0  0  0  0  0  0
    2.6074   28.6880    8.3669 H   0  0  0  0  0  0  0  0  0  0  0  0
    2.4726   26.3779    8.5126 H   0  0  0  0  0  0  0  0  0  0  0  0
    3.9963   26.2763    9.5136 H   0  0  0  0  0  0  0  0  0  0  0  0
    1.6059   25.8150   10.5678 H   0  0  0  0  0  0  0  0  0  0  0  0
    2.9355   26.6860   11.4624 H   0  0  0  0  0  0  0  0  0  0  0  0
    1.7802   28.5958   11.5812 H   0  0  0  0  0  0  0  0  0  0  0  0
    1.1851   28.4348    9.8712 H   0  0  0  0  0  0  0  0  0  0  0  0
   -1.6458   28.1758    9.3812 H   0  0  0  0  0  0  0  0  0  0  0  0
   -2.8121   29.1235   10.3704 H   0  0  0  0  0  0  0  0  0  0  0  0
   -0.5700   30.5540   10.5230 H   0  0  0  0  0  0  0  0  0  0  0  0
   -2.6365   31.1611    8.5029 H   0  0  0  0  0  0  0  0  0  0  0  0
   -2.8118   31.3898   10.2718 H   0  0  0  0  0  0  0  0  0  0  0  0
   -1.9557   33.3724    8.7357 H   0  0  0  0  0  0  0  0  0  0  0  0
   -1.1962   33.0398   10.3675 H   0  0  0  0  0  0  0  0  0  0  0  0
    0.2318   33.4757    8.1022 H   0  0  0  0  0  0  0  0  0  0  0  0
    0.7843   32.4628    9.4979 H   0  0  0  0  0  0  0  0  0  0  0  0
   -0.6488   31.4847    7.0244 H   0  0  0  0  0  0  0  0  0  0  0  0
   -0.4925   29.2898    7.8686 H   0  0  0  0  0  0  0  0  0  0  0  0
    0.8519   29.7328    8.9991 H   0  0  0  0  0  0  0  0  0  0  0  0
   -0.7770   27.4060   14.1080 H   0  0  0  0  0  0  0  0  0  0  0  0
   -0.2010   26.2000   14.9950 H   0  0  0  0  0  0  0  0  0  0  0  0
   -0.3494   22.9888   14.8123 H   0  0  0  0  0  0  0  0  0  0  0  0
   -0.3422   24.7239   15.3843 H   0  0  0  0  0  0  0  0  0  0  0  0
   -2.7959   25.8595   14.4270 H   0  0  0  0  0  0  0  0  0  0  0  0
   -5.1830   25.6697   15.1079 H   0  0  0  0  0  0  0  0  0  0  0  0
   -6.0161   23.5803   16.1802 H   0  0  0  0  0  0  0  0  0  0  0  0
   -4.4621   21.6640   16.5502 H   0  0  0  0  0  0  0  0  0  0  0  0
   -2.0743   21.8417   15.8652 H   0  0  0  0  0  0  0  0  0  0  0  0
   -0.7920   23.2390   10.3660 H   0  0  0  0  0  0  0  0  0  0  0  0
  1  2  1  0
  2  3  1  0
  3  4  1  0
  4  5  1  0
  5  6  1  0
  6  7  2  0
  6  8  1  0
  8  9  1  0
  9 10  1  0
 10 11  1  0
 11 12  1  0
 12 13  1  0
 13 14  1  0
 14 15  1  0
 14 16  1  0
 14 17  1  0
 13 18  1  0
  5 19  1  0
 19 20  2  0
 20 21  1  0
 20 22  1  0
 22 23  1  0
 23 24  1  0
 24 25  2  0
 25 26  1  0
 26 27  2  0
 27 28  1  0
 28 29  2  0
 22 30  1  0
 30 31  2  0
 30 32  1  0
 32 33  1  0
 33 34  2  0
 18  9  1  0
 33 19  1  0
 29 24  1  0
  1 35  1  0
  1 36  1  0
  1 37  1  0
  2 38  1  0
  2 39  1  0
  3 40  1  0
  3 41  1  0
  4 42  1  0
  4 43  1  0
  8 44  1  0
  8 45  1  0
  9 46  1  1
 10 47  1  0
 10 48  1  0
 11 49  1  0
 11 50  1  0
 12 51  1  0
 12 52  1  0
 13 53  1  6
 18 54  1  0
 18 55  1  0
 21 56  1  0
 21 57  1  0
 23 58  1  0
 23 59  1  0
 25 60  1  0
 26 61  1  0
 27 62  1  0
 28 63  1  0
 29 64  1  0
 32 65  1  0
M  CHG  1   9   1
M  END
>  <vina_affinity>  (1) 
-8.041

$$$$
dec_C54095520
     RDKit          3D

 43 44  0  0  0  0  0  0  0  0999 V2000
    4.4010   28.9540    8.1280 C   0  0  0  0  0  0  0  0  0  0  0  0
    2.9340   29.2040    8.3110 C   0  0  0  0  0  0  0  0  0  0  0  0
    2.2620   30.1220    7.4960 C   0  0  0  0  0  0  0  0  0  0  0  0
    0.8990   30.3830    7.6850 C   0  0  0  0  0  0  0  0  0  0  0  0
    0.1940   29.7340    8.6990 C   0  0  0  0  0  0  0  0  0  0  0  0
   -1.1320   29.8860    8.9940 O   0  0  0  0  0  0  0  0  0  0  0  0
   -1.5200   30.0560   10.3570 C   0  0  0  0  0  0  0  0  0  0  0  0
   -2.3860   28.8820   10.8290 C   0  0  0  0  0  0  0  0  0  0  0  0
   -1.8850   28.2580   12.0600 N   0  0  0  0  0  0  0  0  0  0  0  0
   -0.7730   28.9280   12.7160 C   0  0  0  0  0  0  0  0  0  0  0  0
   -2.1190   26.9330   12.3970 C   0  0  0  0  0  0  0  0  0  0  0  0
   -1.3870   26.0010   12.0610 O   0  0  0  0  0  0  0  0  0  0  0  0
   -3.2690   26.6970   13.1230 N   0  0  0  0  0  0  0  0  0  0  0  0
   -3.4250   25.3560   13.5840 N   0  0  0  0  0  0  0  0  0  0  0  0
   -3.2050   25.1440   14.9370 C   0  0  0  0  0  0  0  0  0  0  0  0
   -3.0900   26.0910   15.7170 O   0  0  0  0  0  0  0  0  0  0  0  0
   -3.0970   23.7570   15.3360 C   0  0  0  0  0  0  0  0  0  0  0  0
   -4.0940   22.9580   15.8810 C   0  0  0  0  0  0  0  0  0  0  0  0
   -3.5430   21.6830   16.1030 C   0  0  0  0  0  0  0  0  0  0  0  0
   -4.4780   20.2380   16.8360 Br  0  0  0  0  0  0  0  0  0  0  0  0
   -2.2380   21.6970   15.6880 C   0  0  0  0  0  0  0  0  0  0  0  0
   -1.9780   22.9570   15.2120 N   0  0  0  0  0  0  0  0  0  0  0  0
    0.8690   28.8300    9.5220 C   0  0  0  0  0  0  0  0  0  0  0  0
    2.2280   28.5680    9.3360 C   0  0  0  0  0  0  0  0  0  0  0  0
    4.8845   28.8716    9.1126 H   0  0  0  0  0  0  0  0  0  0  0  0
    4.5465   28.0181    7.5686 H   0  0  0  0  0  0  0  0  0  0  0  0
    4.8482   29.7889    7.5686 H   0  0  0  0  0  0  0  0  0  0  0  0
    2.8103   30.6443    6.6982 H   0  0  0  0  0  0  0  0  0  0  0  0
    0.3827   31.1020    7.0319 H   0  0  0  0  0  0  0  0  0  0  0  0
   -0.6180   30.1132   10.9839 H   0  0  0  0  0  0  0  0  0  0  0  0
   -2.1065   30.9826   10.4429 H   0  0  0  0  0  0  0  0  0  0  0  0
   -3.4060   29.2505   11.0129 H   0  0  0  0  0  0  0  0  0  0  0  0
   -2.3619   28.1169   10.0390 H   0  0  0  0  0  0  0  0  0  0  0  0
   -0.8933   28.8555   13.8070 H   0  0  0  0  0  0  0  0  0  0  0  0
    0.1711   28.4483   12.4185 H   0  0  0  0  0  0  0  0  0  0  0  0
   -0.7559   29.9869   12.4185 H   0  0  0  0  0  0  0  0  0  0  0  0
   -3.4800   27.3770   13.8540 H   0  0  0  0  0  0  0  0  0  0  0  0
   -3.0640   24.6700   12.9230 H   0  0  0  0  0  0  0  0  0  0  0  0
   -5.1271   23.2664   16.0994 H   0  0  0  0  0  0  0  0  0  0  0  0
   -1.5307   20.8555   15.7287 H   0  0  0  0  0  0  0  0  0  0  0  0
   -1.0980   23.2470   14.8030 H   0  0  0  0  0  0  0  0  0  0  0  0
    0.3229   28.3174   10.3276 H   0  0  0  0  0  0  0  0  0  0  0  0
    2.7449   27.8583    9.9987 H   0  0  0  0  0  0  0  0  0  0  0  0
  1  2  1  0
  2  3  2  0
  3  4  1  0
  4  5  2  0
  5  6  1  0
  6  7  1  0
  7  8  1  0
  8  9  1  0
  9 10  1  0
  9 11  1  0
 11 12  2  0
 11 13  1  0
 13 14  1  0
 14 15  1  0
 15 16  2  0
 15 17  1  0
 17 18  2  0
 18 19  1  0
 19 20  1  0
 19 21  2  0
 21 22  1  0
  5 23  1  0
 23 24  2  0
 24  2  1  0
 22 17  1  0
  1 25  1  0
  1 26  1  0
  1 27  1  0
  3 28  1  0
  4 29  1  0
  7 30  1  0
  7 31  1  0
  8 32  1  0
  8 33  1  0
 10 34  1  0
 10 35  1  0
 10 36  1  0
 13 37  1  0
 14 38  1  0
 18 39  1  0
 21 40  1  0
 22 41  1  0
 23 42  1  0
 24 43  1  0
M  END
>  <vina_affinity>  (1) 
-7.570

$$$$
dec_C36076609
     RDKit          3D

 74 76  0  0  0  0  0  0  0  0999 V2000
    4.2340   28.3110    7.1080 C   0  0  0  0  0  0  0  0  0  0  0  0
    3.6360   28.5690    8.4810 C   0  0  0  0  0  0  0  0  0  0  0  0
    2.5140   29.5950    8.4030 N   0  0  0  0  0  0  0  0  0  0  0  0
    2.2170   30.0750    6.9890 C   0  0  0  0  0  0  0  0  0  0  0  0
    1.8460   31.5450    6.8850 C   0  0  0  0  0  0  0  0  0  0  0  0
    1.3030   29.2430    9.3100 C   0  0  2  0  0  0  0  0  0  0  0  0
    1.4080   27.8390    9.9600 C   0  0  0  0  0  0  0  0  0  0  0  0
    0.8190   27.7440   11.2870 N   0  0  0  0  0  0  0  0  0  0  0  0
   -0.4990   27.3300   11.4240 C   0  0  0  0  0  0  0  0  0  0  0  0
   -1.1260   26.8900   10.4630 O   0  0  0  0  0  0  0  0  0  0  0  0
   -1.0450   27.4300   12.8490 C   0  0  0  0  0  0  0  0  0  0  0  0
   -1.3600   26.1100   13.3300 N   0  0  0  0  0  0  0  0  0  0  0  0
   -2.6190   25.6700   13.5740 C   0  0  0  0  0  0  0  0  0  0  0  0
   -3.6500   26.3120   13.4680 O   0  0  0  0  0  0  0  0  0  0  0  0
   -2.5520   24.3530   13.9510 N   0  0  0  0  0  0  0  0  0  0  0  0
   -1.2030   23.8090   13.8850 C   0  0  1  0  0  0  0  0  0  0  0  0
   -0.7390   23.3540   15.2720 C   0  0  0  0  0  0  0  0  0  0  0  0
   -1.0560   21.8740   15.4940 C   0  0  2  0  0  0  0  0  0  0  0  0
   -0.7350   21.4530   16.9280 C   0  0  0  0  0  0  0  0  0  0  0  0
   -0.3200   20.9700   14.4870 C   0  0  0  0  0  0  0  0  0  0  0  0
   -0.1230   21.5830   13.0740 C   0  0  0  0  0  0  0  0  0  0  0  0
   -0.3270   20.4790   12.0140 C   0  0  0  0  0  0  0  0  0  0  0  0
    1.3240   22.0910   12.9200 C   0  0  0  0  0  0  0  0  0  0  0  0
   -1.1400   22.7160   12.8030 C   0  0  0  0  0  0  0  0  0  0  0  0
   -0.4580   25.0910   13.4420 C   0  0  0  0  0  0  0  0  0  0  0  0
    0.7390   25.1880   13.2080 O   0  0  0  0  0  0  0  0  0  0  0  0
   -0.0440   29.5330    8.5950 C   0  0  0  0  0  0  0  0  0  0  0  0
   -0.9780   30.5110    9.2610 C   0  0  0  0  0  0  0  0  0  0  0  0
   -0.5730   31.8350    9.4920 C   0  0  0  0  0  0  0  0  0  0  0  0
   -1.4470   32.7480   10.0840 C   0  0  0  0  0  0  0  0  0  0  0  0
   -2.7260   32.3470   10.4630 C   0  0  0  0  0  0  0  0  0  0  0  0
   -3.1270   31.0280   10.2640 C   0  0  0  0  0  0  0  0  0  0  0  0
   -2.2560   30.1120    9.6730 C   0  0  0  0  0  0  0  0  0  0  0  0
    5.2386   27.8776    7.2212 H   0  0  0  0  0  0  0  0  0  0  0  0
    3.5923   27.6097    6.5545 H   0  0  0  0  0  0  0  0  0  0  0  0
    4.3039   29.2590    6.5545 H   0  0  0  0  0  0  0  0  0  0  0  0
    3.2344   27.6264    8.8814 H   0  0  0  0  0  0  0  0  0  0  0  0
    4.4252   28.9618    9.1389 H   0  0  0  0  0  0  0  0  0  0  0  0
    2.9110   30.4330    8.8450 H   0  0  0  0  0  0  0  0  0  0  0  0
    3.1119   29.9025    6.3730 H   0  0  0  0  0  0  0  0  0  0  0  0
    1.3402   29.5070    6.6446 H   0  0  0  0  0  0  0  0  0  0  0  0
    1.7391   31.9685    7.8946 H   0  0  0  0  0  0  0  0  0  0  0  0
    2.6360   32.0851    6.3426 H   0  0  0  0  0  0  0  0  0  0  0  0
    0.8943   31.6455    6.3426 H   0  0  0  0  0  0  0  0  0  0  0  0
    1.3312   29.9229   10.1742 H   0  0  0  0  0  0  0  0  0  0  0  0
    0.8975   27.1178    9.3048 H   0  0  0  0  0  0  0  0  0  0  0  0
    2.4811   27.6277   10.0777 H   0  0  0  0  0  0  0  0  0  0  0  0
    1.1890   28.3450   12.0180 H   0  0  0  0  0  0  0  0  0  0  0  0
   -0.2874   27.8882   13.5018 H   0  0  0  0  0  0  0  0  0  0  0  0
   -1.9529   28.0510   12.8537 H   0  0  0  0  0  0  0  0  0  0  0  0
   -3.3930   23.8240   14.1490 H   0  0  0  0  0  0  0  0  0  0  0  0
    0.3471   23.5066   15.3567 H   0  0  0  0  0  0  0  0  0  0  0  0
   -1.2699   23.9456   16.0324 H   0  0  0  0  0  0  0  0  0  0  0  0
   -2.1357   21.7471   15.3260 H   0  0  0  0  0  0  0  0  0  0  0  0
   -1.2479   22.1257   17.6312 H   0  0  0  0  0  0  0  0  0  0  0  0
   -1.0773   20.4206   17.0924 H   0  0  0  0  0  0  0  0  0  0  0  0
    0.3512   21.5097   17.0924 H   0  0  0  0  0  0  0  0  0  0  0  0
    0.6730   20.7381   14.8995 H   0  0  0  0  0  0  0  0  0  0  0  0
   -0.9554   20.0825   14.3503 H   0  0  0  0  0  0  0  0  0  0  0  0
   -0.5048   19.5167   12.5164 H   0  0  0  0  0  0  0  0  0  0  0  0
   -1.1940   20.7301   11.3852 H   0  0  0  0  0  0  0  0  0  0  0  0
    0.5724   20.4037   11.3852 H   0  0  0  0  0  0  0  0  0  0  0  0
    1.7660   22.2462   13.9153 H   0  0  0  0  0  0  0  0  0  0  0  0
    1.9169   21.3473   12.3674 H   0  0  0  0  0  0  0  0  0  0  0  0
    1.3218   23.0421   12.3674 H   0  0  0  0  0  0  0  0  0  0  0  0
   -0.8708   23.1949   11.8500 H   0  0  0  0  0  0  0  0  0  0  0  0
   -2.1319   22.2407   12.7894 H   0  0  0  0  0  0  0  0  0  0  0  0
    0.1897   29.9265    7.5947 H   0  0  0  0  0  0  0  0  0  0  0  0
   -0.5829   28.5741    8.6031 H   0  0  0  0  0  0  0  0  0  0  0  0
    0.4395   32.1549    9.2047 H   0  0  0  0  0  0  0  0  0  0  0  0
   -1.1251   33.7864   10.2516 H   0  0  0  0  0  0  0  0  0  0  0  0
   -3.4180   33.0706   10.9186 H   0  0  0  0  0  0  0  0  0  0  0  0
   -4.1328   30.7077   10.5735 H   0  0  0  0  0  0  0  0  0  0  0  0
   -2.5752   29.0691    9.5296 H   0  0  0  0  0  0  0  0  0  0  0  0
  1  2  1  0
  2  3  1  0
  3  4  1  0
  4  5  1  0
  3  6  1  0
  6  7  1  0
  7  8  1  0
  8  9  1  0
  9 10  2  0
  9 11  1  0
 11 12  1  0
 12 13  1  0
 13 14  2  0
 13 15  1  0
 16 15  1  1
 16 17  1  0
 17 18  1  0
 18 19  1  0
 18 20  1  0
 20 21  1  0
 21 22  1  0
 21 23  1  0
 21 24  1  0
 16 25  1  0
 25 26  2  0
  6 27  1  0
 27 28  1  0
 28 29  2  0
 29 30  1  0
 30 31  2  0
 31 32  1  0
 32 33  2  0
 25 12  1  0
 33 28  1  0
 24 16  1  0
  1 34  1  0
  1 35  1  0
  1 36  1  0
  2 37  1  0
  2 38  1  0
  3 39  1  0
  4 40  1  0
  4 41  1  0
  5 42  1  0
  5 43  1  0
  5 44  1  0
  6 45  1  1
  7 46  1  0
  7 47  1  0
  8 48  1  0
 11 49  1  0
 11 50  1  0
 15 51  1  0
 17 52  1  0
 17 53  1  0
 18 54  1  6
 19 55  1  0
 19 56  1  0
 19 57  1  0
 20 58  1  0
 20 59  1  0
 22 60  1  0
 22 61  1  0
 22 62  1  0
 23 63  1  0
 23 64  1  0
 23 65  1  0
 24 66  1  0
 24 67  1  0
 27 68  1  0
 27 69  1  0
 29 70  1  0
 30 71  1  0
 31 72  1  0
 32 73  1  0
 33 74  1  0
M  CHG  1   3   1
M  END
>  <vina_affinity>  (1) 
-8.373

$$$$
dec_C44784294
     RDKit          3D

 50 51  0  0  0  0  0  0  0  0999 V2000
   -2.5700   29.9850   10.2900 C   0  0  0  0  0  0  0  0  0  0  0  0
   -1.0590   30.2330   10.4240 C   0  0  2  0  0  0  0  0  0  0  0  0
   -0.5410   31.4600    9.6190 C   0  0  2  0  0  0  0  0  0  0  0  0
   -1.5200   32.6320    9.5610 C   0  0  0  0  0  0  0  0  0  0  0  0
   -0.0970   31.0490    8.2110 C   0  0  0  0  0  0  0  0  0  0  0  0
    1.0640   30.0530    8.2510 C   0  0  0  0  0  0  0  0  0  0  0  0
    1.1070   29.2160    9.5290 C   0  0  0  0  0  0  0  0  0  0  0  0
   -0.3000   28.9270   10.0580 C   0  0  1  0  0  0  0  0  0  0  0  0
   -0.2370   28.0390   11.2120 N   0  0  0  0  0  0  0  0  0  0  0  0
   -0.8190   26.7830   11.1990 C   0  0  0  0  0  0  0  0  0  0  0  0
   -1.5070   26.3860   10.2600 O   0  0  0  0  0  0  0  0  0  0  0  0
   -0.5360   25.9310   12.4550 C   0  0  0  0  0  0  0  0  0  0  0  0
    0.7170   25.0550   12.2160 C   0  0  0  0  0  0  0  0  0  0  0  0
    0.7320   23.7730   12.7110 N   0  0  0  0  0  0  0  0  0  0  0  0
    1.7380   25.5660   11.5860 N   0  0  0  0  0  0  0  0  0  0  0  0
    2.7900   24.6390   11.5030 O   0  0  0  0  0  0  0  0  0  0  0  0
   -0.3590   26.9120   13.6520 C   0  0  0  0  0  0  0  0  0  0  0  0
   -0.8440   26.3260   14.9750 C   0  0  0  0  0  0  0  0  0  0  0  0
   -2.3320   25.9850   14.9360 C   0  0  0  0  0  0  0  0  0  0  0  0
   -2.8200   25.5680   13.5510 C   0  0  0  0  0  0  0  0  0  0  0  0
   -1.7070   24.9410   12.7180 C   0  0  0  0  0  0  0  0  0  0  0  0
   -3.0197   29.9112   11.2912 H   0  0  0  0  0  0  0  0  0  0  0  0
   -3.0313   30.8194    9.7415 H   0  0  0  0  0  0  0  0  0  0  0  0
   -2.7404   29.0469    9.7415 H   0  0  0  0  0  0  0  0  0  0  0  0
   -0.8570   30.4990   11.4721 H   0  0  0  0  0  0  0  0  0  0  0  0
    0.3306   31.8293   10.1792 H   0  0  0  0  0  0  0  0  0  0  0  0
   -1.7801   32.9434   10.5834 H   0  0  0  0  0  0  0  0  0  0  0  0
   -1.0530   33.4739    9.0289 H   0  0  0  0  0  0  0  0  0  0  0  0
   -2.4316   32.3223    9.0289 H   0  0  0  0  0  0  0  0  0  0  0  0
   -0.9474   30.5842    7.6906 H   0  0  0  0  0  0  0  0  0  0  0  0
    0.2438   31.9513    7.6822 H   0  0  0  0  0  0  0  0  0  0  0  0
    0.9682   29.3722    7.3923 H   0  0  0  0  0  0  0  0  0  0  0  0
    1.9940   30.6395    8.2175 H   0  0  0  0  0  0  0  0  0  0  0  0
    1.6112   28.2621    9.3147 H   0  0  0  0  0  0  0  0  0  0  0  0
    1.6539   29.7845   10.2956 H   0  0  0  0  0  0  0  0  0  0  0  0
   -0.8605   28.4307    9.2521 H   0  0  0  0  0  0  0  0  0  0  0  0
    0.5160   28.1880   11.8730 H   0  0  0  0  0  0  0  0  0  0  0  0
    1.6780   23.3990   12.7390 H   0  0  0  0  0  0  0  0  0  0  0  0
    0.1920   23.5900   13.5500 H   0  0  0  0  0  0  0  0  0  0  0  0
    3.1850   24.8560   10.6370 H   0  0  0  0  0  0  0  0  0  0  0  0
    0.7084   27.1600   13.7480 H   0  0  0  0  0  0  0  0  0  0  0  0
   -0.9684   27.8034   13.4420 H   0  0  0  0  0  0  0  0  0  0  0  0
   -0.2746   25.4092   15.1877 H   0  0  0  0  0  0  0  0  0  0  0  0
   -0.6880   27.0811   15.7596 H   0  0  0  0  0  0  0  0  0  0  0  0
   -2.5189   25.1572   15.6359 H   0  0  0  0  0  0  0  0  0  0  0  0
   -2.8823   26.8958   15.2147 H   0  0  0  0  0  0  0  0  0  0  0  0
   -3.6327   24.8358   13.6664 H   0  0  0  0  0  0  0  0  0  0  0  0
   -3.1688   26.4705   13.0277 H   0  0  0  0  0  0  0  0  0  0  0  0
   -1.3151   24.0642   13.2543 H   0  0  0  0  0  0  0  0  0  0  0  0
   -2.1340   24.6591   11.7442 H   0  0  0  0  0  0  0  0  0  0  0  0
  1  2  1  0
  2  3  1  0
  3  4  1  0
  3  5  1  0
  5  6  1  0
  6  7  1  0
  7  8  1  0
  8  9  1  0
  9 10  1  0
 10 11  2  0
 10 12  1  0
 12 13  1  0
 13 14  1  0
 13 15  2  0
 15 16  1  0
 12 17  1  0
 17 18  1  0
 18 19  1  0
 19 20  1  0
 20 21  1  0
  8  2  1  0
 21 12  1  0
  1 22  1  0
  1 23  1  0
  1 24  1  0
  2 25  1  1
  3 26  1  1
  4 27  1  0
  4 28  1  0
  4 29  1  0
  5 30  1  0
  5 31  1  0
  6 32  1  0
  6 33  1  0
  7 34  1  0
  7 35  1  0
  8 36  1  6
  9 37  1  0
 14 38  1  0
 14 39  1  0
 16 40  1  0
 17 41  1  0
 17 42  1  0
 18 43  1  0
 18 44  1  0
 19 45  1  0
 19 46  1  0
 20 47  1  0
 20 48  1  0
 21 49  1  0
 21 50  1  0
M  END
>  <vina_affinity>  (1) 
-7.644

$$$$
dec_C15482140
     RDKit          3D

 57 60  0  0  0  0  0  0  0  0999 V2000
   -5.0950   20.3600   16.5110 N   0  0  0  0  0  0  0  0  0  0  0  0
   -4.4920   21.5560   16.7710 C   0  0  0  0  0  0  0  0  0  0  0  0
   -4.1210   21.8270   17.9030 O   0  0  0  0  0  0  0  0  0  0  0  0
   -4.3330   22.3040   15.6420 N   0  0  0  0  0  0  0  0  0  0  0  0
   -3.7030   23.5330   15.7120 C   0  0  0  0  0  0  0  0  0  0  0  0
   -4.0330   24.4390   16.4760 O   0  0  0  0  0  0  0  0  0  0  0  0
   -2.6330   23.7420   14.6010 C   0  0  2  0  0  0  0  0  0  0  0  0
   -1.5600   22.6620   14.7510 C   0  0  0  0  0  0  0  0  0  0  0  0
   -0.9880   22.3430   15.9940 C   0  0  0  0  0  0  0  0  0  0  0  0
   -0.0210   21.3410   16.0980 C   0  0  0  0  0  0  0  0  0  0  0  0
    0.3840   20.6410   14.9640 C   0  0  0  0  0  0  0  0  0  0  0  0
   -0.1790   20.9400   13.7250 C   0  0  0  0  0  0  0  0  0  0  0  0
   -1.1450   21.9410   13.6190 C   0  0  0  0  0  0  0  0  0  0  0  0
   -2.1020   25.1530   14.6480 N   0  0  0  0  0  0  0  0  0  0  0  0
   -3.0210   26.0980   13.9450 C   0  0  0  0  0  0  0  0  0  0  0  0
   -2.6680   26.4000   12.4750 C   0  0  0  0  0  0  0  0  0  0  0  0
   -1.3070   27.0120   12.3530 N   0  0  0  0  0  0  0  0  0  0  0  0
   -0.5890   26.8700   10.8080 S   0  0  0  0  0  0  0  0  0  0  0  0
   -1.4900   26.0840    9.9920 O   0  0  0  0  0  0  0  0  0  0  0  0
    0.7910   26.4720   10.9890 O   0  0  0  0  0  0  0  0  0  0  0  0
   -0.5920   28.5440   10.2200 C   0  0  0  0  0  0  0  0  0  0  0  0
    0.3180   28.9060    9.2090 C   0  0  0  0  0  0  0  0  0  0  0  0
    0.3410   30.2140    8.7230 C   0  0  0  0  0  0  0  0  0  0  0  0
   -0.5440   31.1300    9.2670 C   0  0  0  0  0  0  0  0  0  0  0  0
   -1.4540   30.7620   10.2670 C   0  0  0  0  0  0  0  0  0  0  0  0
   -1.5000   29.4670   10.7510 C   0  0  0  0  0  0  0  0  0  0  0  0
   -2.3310   31.9170   10.6390 C   0  0  0  0  0  0  0  0  0  0  0  0
   -1.5200   33.0980   10.0860 C   0  0  0  0  0  0  0  0  0  0  0  0
   -0.7330   32.5660    8.8820 C   0  0  0  0  0  0  0  0  0  0  0  0
   -0.3950   26.6200   13.4750 C   0  0  0  0  0  0  0  0  0  0  0  0
   -0.7500   25.2250   14.0200 C   0  0  0  0  0  0  0  0  0  0  0  0
   -5.8710   20.3960   15.8610 H   0  0  0  0  0  0  0  0  0  0  0  0
   -5.3130   19.8530   17.3620 H   0  0  0  0  0  0  0  0  0  0  0  0
   -3.9770   21.7330   14.8860 H   0  0  0  0  0  0  0  0  0  0  0  0
   -3.0688   23.6286   13.5974 H   0  0  0  0  0  0  0  0  0  0  0  0
   -1.3053   22.8885   16.8950 H   0  0  0  0  0  0  0  0  0  0  0  0
    0.4215   21.1042   17.0768 H   0  0  0  0  0  0  0  0  0  0  0  0
    1.1473   19.8532   15.0464 H   0  0  0  0  0  0  0  0  0  0  0  0
    0.1386   20.3861   12.8293 H   0  0  0  0  0  0  0  0  0  0  0  0
   -1.5868   22.1683   12.6376 H   0  0  0  0  0  0  0  0  0  0  0  0
   -4.0327   25.6668   13.9685 H   0  0  0  0  0  0  0  0  0  0  0  0
   -2.9336   27.0559   14.4786 H   0  0  0  0  0  0  0  0  0  0  0  0
   -2.6908   25.4615   11.9017 H   0  0  0  0  0  0  0  0  0  0  0  0
   -3.4052   27.1160   12.0827 H   0  0  0  0  0  0  0  0  0  0  0  0
    1.0123   28.1565    8.8012 H   0  0  0  0  0  0  0  0  0  0  0  0
    1.0430   30.5095    7.9294 H   0  0  0  0  0  0  0  0  0  0  0  0
   -2.2241   29.1733   11.5252 H   0  0  0  0  0  0  0  0  0  0  0  0
   -3.3176   31.8452   10.1580 H   0  0  0  0  0  0  0  0  0  0  0  0
   -2.5540   31.9866   11.7139 H   0  0  0  0  0  0  0  0  0  0  0  0
   -2.1952   33.9069    9.7702 H   0  0  0  0  0  0  0  0  0  0  0  0
   -0.8441   33.5071   10.8514 H   0  0  0  0  0  0  0  0  0  0  0  0
   -1.3097   32.6606    7.9501 H   0  0  0  0  0  0  0  0  0  0  0  0
    0.2041   33.1061    8.6817 H   0  0  0  0  0  0  0  0  0  0  0  0
    0.6416   26.6083   13.1073 H   0  0  0  0  0  0  0  0  0  0  0  0
   -0.5099   27.3512   14.2887 H   0  0  0  0  0  0  0  0  0  0  0  0
   -0.7153   24.5074   13.1870 H   0  0  0  0  0  0  0  0  0  0  0  0
   -0.0172   24.9907   14.8062 H   0  0  0  0  0  0  0  0  0  0  0  0
  1  2  1  0
  2  3  2  0
  2  4  1  0
  4  5  1  0
  5  6  2  0
  5  7  1  0
  7  8  1  0
  8  9  2  0
  9 10  1  0
 10 11  2  0
 11 12  1  0
 12 13  2  0
  7 14  1  0
 14 15  1  0
 15 16  1  0
 16 17  1  0
 17 18  1  0
 18 19  2  0
 18 20  2  0
 18 21  1  0
 21 22  2  0
 22 23  1  0
 23 24  2  0
 24 25  1  0
 25 26  2  0
 25 27  1  0
 27 28  1  0
 28 29  1  0
 17 30  1  0
 30 31  1  0
 13  8  1  0
 31 14  1  0
 26 21  1  0
 29 24  1  0
  1 32  1  0
  1 33  1  0
  4 34  1  0
  7 35  1  6
  9 36  1  0
 10 37  1  0
 11 38  1  0
 12 39  1  0
 13 40  1  0
 15 41  1  0
 15 42  1  0
 16 43  1  0
 16 44  1  0
 22 45  1  0
 23 46  1  0
 26 47  1  0
 27 48  1  0
 27 49  1  0
 28 50  1  0
 28 51  1  0
 29 52  1  0
 29 53  1  0
 30 54  1  0
 30 55  1  0
 31 56  1  0
 31 57  1  0
M  END
>  <vina_affinity>  (1) 
-9.134

$$$$
dec_C37027214
     RDKit          3D

 47 49  0  0  0  0  0  0  0  0999 V2000
   -2.2800   32.6950   10.8360 C   0  0  0  0  0  0  0  0  0  0  0  0
   -1.8600   32.1090    9.4950 C   0  0  0  0  0  0  0  0  0  0  0  0
   -0.3420   31.9080    9.2770 C   0  0  2  0  0  0  0  0  0  0  0  0
    0.1500   32.7400    8.0710 C   0  0  0  0  0  0  0  0  0  0  0  0
    1.4700   32.2240    7.5130 C   0  0  0  0  0  0  0  0  0  0  0  0
    1.3350   30.7930    6.9930 C   0  0  0  0  0  0  0  0  0  0  0  0
    0.3370   29.9430    7.7860 C   0  0  0  0  0  0  0  0  0  0  0  0
    0.1830   30.4430    9.2260 C   0  0  2  0  0  0  0  0  0  0  0  0
   -0.5830   29.5090   10.0380 N   0  0  0  0  0  0  0  0  0  0  0  0
   -0.2030   29.1780   11.3230 C   0  0  0  0  0  0  0  0  0  0  0  0
    0.7290   29.7070   11.9170 O   0  0  0  0  0  0  0  0  0  0  0  0
   -1.0170   28.1330   11.9990 C   0  0  0  0  0  0  0  0  0  0  0  0
   -2.3530   27.9830   11.6180 C   0  0  0  0  0  0  0  0  0  0  0  0
   -3.1520   27.0130   12.2300 C   0  0  0  0  0  0  0  0  0  0  0  0
   -2.6450   26.2040   13.2540 C   0  0  0  0  0  0  0  0  0  0  0  0
   -1.2920   26.3360   13.6170 C   0  0  0  0  0  0  0  0  0  0  0  0
   -0.4920   27.3180   13.0080 C   0  0  0  0  0  0  0  0  0  0  0  0
   -0.7060   25.4770   14.7090 C   0  0  0  0  0  0  0  0  0  0  0  0
   -1.5460   24.2300   14.9620 C   0  0  0  0  0  0  0  0  0  0  0  0
   -3.0140   24.6140   15.0510 C   0  0  0  0  0  0  0  0  0  0  0  0
   -3.4570   25.1940   13.7900 N   0  0  0  0  0  0  0  0  0  0  0  0
   -1.8490   32.0937   11.6500 H   0  0  0  0  0  0  0  0  0  0  0  0
   -1.9172   33.7306   10.9134 H   0  0  0  0  0  0  0  0  0  0  0  0
   -3.3772   32.6841   10.9134 H   0  0  0  0  0  0  0  0  0  0  0  0
   -2.3457   31.1274    9.3919 H   0  0  0  0  0  0  0  0  0  0  0  0
   -2.1673   32.8508    8.7431 H   0  0  0  0  0  0  0  0  0  0  0  0
    0.1089   32.2851   10.2068 H   0  0  0  0  0  0  0  0  0  0  0  0
   -0.6106   32.6968    7.2775 H   0  0  0  0  0  0  0  0  0  0  0  0
    0.3111   33.7716    8.4171 H   0  0  0  0  0  0  0  0  0  0  0  0
    1.7886   32.8764    6.6866 H   0  0  0  0  0  0  0  0  0  0  0  0
    2.2137   32.2288    8.3235 H   0  0  0  0  0  0  0  0  0  0  0  0
    1.0016   30.8338    5.9455 H   0  0  0  0  0  0  0  0  0  0  0  0
    2.3207   30.3168    7.1005 H   0  0  0  0  0  0  0  0  0  0  0  0
   -0.6426   29.9859    7.2874 H   0  0  0  0  0  0  0  0  0  0  0  0
    0.7177   28.9116    7.8207 H   0  0  0  0  0  0  0  0  0  0  0  0
    1.1827   30.4786    9.6836 H   0  0  0  0  0  0  0  0  0  0  0  0
   -1.3760   29.0380    9.6300 H   0  0  0  0  0  0  0  0  0  0  0  0
   -2.7766   28.6293   10.8352 H   0  0  0  0  0  0  0  0  0  0  0  0
   -4.1941   26.8834   11.9024 H   0  0  0  0  0  0  0  0  0  0  0  0
    0.5530   27.4467   13.3264 H   0  0  0  0  0  0  0  0  0  0  0  0
    0.3081   25.1692   14.4141 H   0  0  0  0  0  0  0  0  0  0  0  0
   -0.6862   26.0692   15.6358 H   0  0  0  0  0  0  0  0  0  0  0  0
   -1.4031   23.5184   14.1355 H   0  0  0  0  0  0  0  0  0  0  0  0
   -1.2322   23.7636   15.9075 H   0  0  0  0  0  0  0  0  0  0  0  0
   -3.6122   23.7170   15.2689 H   0  0  0  0  0  0  0  0  0  0  0  0
   -3.1444   25.3548   15.8536 H   0  0  0  0  0  0  0  0  0  0  0  0
   -4.4420   25.4480   13.7820 H   0  0  0  0  0  0  0  0  0  0  0  0
  1  2  1  0
  2  3  1  0
  3  4  1  0
  4  5  1  0
  5  6  1  0
  6  7  1  0
  7  8  1  0
  8  9  1  0
  9 10  1  0
 10 11  2  0
 10 12  1  0
 12 13  2  0
 13 14  1  0
 14 15  2  0
 15 16  1  0
 16 17  2  0
 16 18  1  0
 18 19  1  0
 19 20  1  0
 20 21  1  0
  8  3  1  0
 17 12  1  0
 21 15  1  0
  1 22  1  0
  1 23  1  0
  1 24  1  0
  2 25  1  0
  2 26  1  0
  3 27  1  1
  4 28  1  0
  4 29  1  0
  5 30  1  0
  5 31  1  0
  6 32  1  0
  6 33  1  0
  7 34  1  0
  7 35  1  0
  8 36  1  1
  9 37  1  0
 13 38  1  0
 14 39  1  0
 17 40  1  0
 18 41  1  0
 18 42  1  0
 19 43  1  0
 19 44  1  0
 20 45  1  0
 20 46  1  0
 21 47  1  0
M  END
>  <vina_affinity>  (1) 
-8.341

$$$$
dec_C67620280
     RDKit          3D

 63 64  0  0  0  0  0  0  0  0999 V2000
   -2.4330   26.6940   15.7120 C   0  0  0  0  0  0  0  0  0  0  0  0
   -1.1910   26.6450   14.8180 C   0  0  2  0  0  0  0  0  0  0  0  0
   -1.4200   27.3830   13.4920 C   0  0  0  0  0  0  0  0  0  0  0  0
   -2.2980   26.6080   12.5140 C   0  0  0  0  0  0  0  0  0  0  0  0
   -1.7630   25.2210   12.3140 N   0  0  1  0  0  0  0  0  0  0  0  0
   -0.5630   25.1000   11.3750 C   0  0  0  0  0  0  0  0  0  0  0  0
    0.3070   23.9050   11.8250 C   0  0  1  0  0  0  0  0  0  0  0  0
    0.0940   22.8710   10.8390 O   0  0  0  0  0  0  0  0  0  0  0  0
    1.8020   24.2700   11.9440 C   0  0  0  0  0  0  0  0  0  0  0  0
    2.0980   25.6520   11.5860 N   0  0  0  0  0  0  0  0  0  0  0  0
    2.5110   25.9860   10.3220 C   0  0  0  0  0  0  0  0  0  0  0  0
    2.8020   25.1510    9.4760 O   0  0  0  0  0  0  0  0  0  0  0  0
    2.5580   27.3340   10.1420 N   0  0  0  0  0  0  0  0  0  0  0  0
    2.9880   27.9320    8.8860 C   0  0  2  0  0  0  0  0  0  0  0  0
    4.4810   28.2750    8.9240 C   0  0  0  0  0  0  0  0  0  0  0  0
    2.0800   29.1090    8.5760 C   0  0  0  0  0  0  0  0  0  0  0  0
    2.3840   30.0760    7.6100 C   0  0  0  0  0  0  0  0  0  0  0  0
    1.5260   31.1560    7.3950 C   0  0  0  0  0  0  0  0  0  0  0  0
    0.3540   31.2920    8.1450 C   0  0  0  0  0  0  0  0  0  0  0  0
    0.0340   30.3470    9.1150 C   0  0  0  0  0  0  0  0  0  0  0  0
   -1.0600   30.3590    9.9310 O   0  0  0  0  0  0  0  0  0  0  0  0
   -2.1930   31.1550    9.5650 C   0  0  0  0  0  0  0  0  0  0  0  0
   -3.4290   30.2810    9.7720 C   0  0  0  0  0  0  0  0  0  0  0  0
   -2.2690   32.3860   10.4620 C   0  0  0  0  0  0  0  0  0  0  0  0
    0.9030   29.2710    9.3290 C   0  0  0  0  0  0  0  0  0  0  0  0
   -1.6380   24.4530   13.5980 C   0  0  0  0  0  0  0  0  0  0  0  0
   -0.7310   25.2020   14.5650 C   0  0  0  0  0  0  0  0  0  0  0  0
   -2.1253   26.6819   16.7680 H   0  0  0  0  0  0  0  0  0  0  0  0
   -2.9976   27.6151   15.5051 H   0  0  0  0  0  0  0  0  0  0  0  0
   -3.0684   25.8202   15.5051 H   0  0  0  0  0  0  0  0  0  0  0  0
   -0.3867   27.1645   15.3594 H   0  0  0  0  0  0  0  0  0  0  0  0
   -1.9044   28.3467   13.7079 H   0  0  0  0  0  0  0  0  0  0  0  0
   -0.4365   27.5109   13.0162 H   0  0  0  0  0  0  0  0  0  0  0  0
   -3.3205   26.5474   12.9151 H   0  0  0  0  0  0  0  0  0  0  0  0
   -2.3009   27.1314   11.5465 H   0  0  0  0  0  0  0  0  0  0  0  0
   -2.4900   24.7140   11.7590 H   0  0  0  0  0  0  0  0  0  0  0  0
   -0.9147   24.9338   10.3461 H   0  0  0  0  0  0  0  0  0  0  0  0
    0.0303   26.0257   11.4077 H   0  0  0  0  0  0  0  0  0  0  0  0
    0.0168   23.5744   12.8332 H   0  0  0  0  0  0  0  0  0  0  0  0
    0.9020   22.8670   10.2630 H   0  0  0  0  0  0  0  0  0  0  0  0
    2.1179   24.1055   12.9848 H   0  0  0  0  0  0  0  0  0  0  0  0
    2.3467   23.6302   11.2341 H   0  0  0  0  0  0  0  0  0  0  0  0
    1.4970   26.3580   11.9950 H   0  0  0  0  0  0  0  0  0  0  0  0
    2.6280   27.9190   10.9620 H   0  0  0  0  0  0  0  0  0  0  0  0
    2.8895   27.2172    8.0557 H   0  0  0  0  0  0  0  0  0  0  0  0
    4.8132   28.3513    9.9699 H   0  0  0  0  0  0  0  0  0  0  0  0
    5.0519   27.4846    8.4147 H   0  0  0  0  0  0  0  0  0  0  0  0
    4.6497   29.2353    8.4147 H   0  0  0  0  0  0  0  0  0  0  0  0
    3.3055   29.9840    7.0163 H   0  0  0  0  0  0  0  0  0  0  0  0
    1.7740   31.9059    6.6294 H   0  0  0  0  0  0  0  0  0  0  0  0
   -0.3156   32.1466    7.9682 H   0  0  0  0  0  0  0  0  0  0  0  0
   -2.1209   31.4966    8.5219 H   0  0  0  0  0  0  0  0  0  0  0  0
   -3.6109   30.1524   10.8492 H   0  0  0  0  0  0  0  0  0  0  0  0
   -4.3015   30.7640    9.3079 H   0  0  0  0  0  0  0  0  0  0  0  0
   -3.2644   29.2974    9.3079 H   0  0  0  0  0  0  0  0  0  0  0  0
   -2.2497   32.0731   11.5164 H   0  0  0  0  0  0  0  0  0  0  0  0
   -1.4096   33.0417   10.2583 H   0  0  0  0  0  0  0  0  0  0  0  0
   -3.2025   32.9310   10.2583 H   0  0  0  0  0  0  0  0  0  0  0  0
    0.6591   28.5323   10.1067 H   0  0  0  0  0  0  0  0  0  0  0  0
   -2.6337   24.3341   14.0500 H   0  0  0  0  0  0  0  0  0  0  0  0
   -1.2042   23.4643   13.3873 H   0  0  0  0  0  0  0  0  0  0  0  0
   -0.7196   24.6637   15.5242 H   0  0  0  0  0  0  0  0  0  0  0  0
    0.2697   25.2489   14.1106 H   0  0  0  0  0  0  0  0  0  0  0  0
  1  2  1  0
  2  3  1  0
  3  4  1  0
  4  5  1  0
  5  6  1  0
  6  7  1  0
  7  8  1  0
  7  9  1  0
  9 10  1  0
 10 11  1  0
 11 12  2  0
 11 13  1  0
 13 14  1  0
 14 15  1  0
 14 16  1  0
 16 17  2  0
 17 18  1  0
 18 19  2  0
 19 20  1  0
 20 21  1  0
 21 22  1  0
 22 23  1  0
 22 24  1  0
 20 25  2  0
  5 26  1  0
 26 27  1  0
 27  2  1  0
 25 16  1  0
  1 28  1  0
  1 29  1  0
  1 30  1  0
  2 31  1  1
  3 32  1  0
  3 33  1  0
  4 34  1  0
  4 35  1  0
  5 36  1  6
  6 37  1  0
  6 38  1  0
  7 39  1  1
  8 40  1  0
  9 41  1  0
  9 42  1  0
 10 43  1  0
 13 44  1  0
 14 45  1  6
 15 46  1  0
 15 47  1  0
 15 48  1  0
 17 49  1  0
 18 50  1  0
 19 51  1  0
 22 52  1  0
 23 53  1  0
 23 54  1  0
 23 55  1  0
 24 56  1  0
 24 57  1  0
 24 58  1  0
 25 59  1  0
 26 60  1  0
 26 61  1  0
 27 62  1  0
 27 63  1  0
M  CHG  1   5   1
M  END
>  <vina_affinity>  (1) 
-7.952

$$$$
dec_C12645374
     RDKit          3D

 44 46  0  0  0  0  0  0  0  0999 V2000
   -0.3950   26.1970   14.9890 C   0  0  0  0  0  0  0  0  0  0  0  0
   -1.8710   26.4730   14.7650 C   0  0  0  0  0  0  0  0  0  0  0  0
   -2.3530   25.6750   13.6790 O   0  0  0  0  0  0  0  0  0  0  0  0
   -1.8170   25.9360   12.4450 C   0  0  0  0  0  0  0  0  0  0  0  0
   -1.7090   27.2010   11.8650 C   0  0  0  0  0  0  0  0  0  0  0  0
   -1.1360   27.3580   10.5860 C   0  0  0  0  0  0  0  0  0  0  0  0
   -0.9600   28.7190    9.9380 C   0  0  1  0  0  0  0  0  0  0  0  0
   -1.3490   29.8130   10.7780 N   0  0  0  0  0  0  0  0  0  0  0  0
   -1.2870   31.0860   10.2700 C   0  0  0  0  0  0  0  0  0  0  0  0
   -1.9680   31.9940   10.7280 O   0  0  0  0  0  0  0  0  0  0  0  0
   -0.3480   31.2860    9.1440 C   0  0  0  0  0  0  0  0  0  0  0  0
   -0.2620   32.5220    8.5000 C   0  0  0  0  0  0  0  0  0  0  0  0
    0.6530   32.6920    7.4620 C   0  0  0  0  0  0  0  0  0  0  0  0
    1.4800   31.6330    7.0780 C   0  0  0  0  0  0  0  0  0  0  0  0
    1.3930   30.3990    7.7300 C   0  0  0  0  0  0  0  0  0  0  0  0
    0.4720   30.2090    8.7680 C   0  0  0  0  0  0  0  0  0  0  0  0
    0.4060   28.9470    9.4340 N   0  0  0  0  0  0  0  0  0  0  0  0
    1.5140   28.8780   10.4410 C   0  0  0  0  0  0  0  0  0  0  0  0
    2.5560   27.8210   10.0630 C   0  0  0  0  0  0  0  0  0  0  0  0
    2.6050   26.7330   10.8920 N   0  0  0  0  0  0  0  0  0  0  0  0
    3.2610   27.8960    9.0620 O   0  0  0  0  0  0  0  0  0  0  0  0
   -0.6920   26.2110    9.9000 C   0  0  0  0  0  0  0  0  0  0  0  0
   -0.8300   24.9430   10.4610 C   0  0  0  0  0  0  0  0  0  0  0  0
   -1.3960   24.8180   11.7220 C   0  0  0  0  0  0  0  0  0  0  0  0
   -1.5200   23.5650   12.2540 O   0  0  0  0  0  0  0  0  0  0  0  0
   -0.1889   26.1585   16.0688 H   0  0  0  0  0  0  0  0  0  0  0  0
   -0.1284   25.2334   14.5302 H   0  0  0  0  0  0  0  0  0  0  0  0
    0.2018   26.9991   14.5302 H   0  0  0  0  0  0  0  0  0  0  0  0
   -2.4319   26.2245   15.6781 H   0  0  0  0  0  0  0  0  0  0  0  0
   -2.0094   27.5372   14.5237 H   0  0  0  0  0  0  0  0  0  0  0  0
   -2.0742   28.0836   12.4106 H   0  0  0  0  0  0  0  0  0  0  0  0
   -1.6489   28.6918    9.0809 H   0  0  0  0  0  0  0  0  0  0  0  0
   -2.1390   29.6790   11.3930 H   0  0  0  0  0  0  0  0  0  0  0  0
   -0.9109   33.3547    8.8092 H   0  0  0  0  0  0  0  0  0  0  0  0
    0.7240   33.6603    6.9449 H   0  0  0  0  0  0  0  0  0  0  0  0
    2.2022   31.7706    6.2597 H   0  0  0  0  0  0  0  0  0  0  0  0
    2.0519   29.5724    7.4258 H   0  0  0  0  0  0  0  0  0  0  0  0
    2.0063   29.8600   10.4976 H   0  0  0  0  0  0  0  0  0  0  0  0
    1.0788   28.5995   11.4121 H   0  0  0  0  0  0  0  0  0  0  0  0
    2.2500   26.8680   11.8320 H   0  0  0  0  0  0  0  0  0  0  0  0
    3.3880   26.1070   10.7630 H   0  0  0  0  0  0  0  0  0  0  0  0
   -0.2298   26.3176    8.9075 H   0  0  0  0  0  0  0  0  0  0  0  0
   -0.4943   24.0516    9.9109 H   0  0  0  0  0  0  0  0  0  0  0  0
   -0.8950   23.0120   11.7440 H   0  0  0  0  0  0  0  0  0  0  0  0
  1  2  1  0
  2  3  1  0
  3  4  1  0
  4  5  2  0
  5  6  1  0
  6  7  1  0
  7  8  1  0
  8  9  1  0
  9 10  2  0
  9 11  1  0
 11 12  2  0
 12 13  1  0
 13 14  2  0
 14 15  1  0
 15 16  2  0
 16 17  1  0
 17 18  1  0
 18 19  1  0
 19 20  1  0
 19 21  2  0
  6 22  2  0
 22 23  1  0
 23 24  2  0
 24 25  1  0
 24  4  1  0
 17  7  1  0
 16 11  1  0
  1 26  1  0
  1 27  1  0
  1 28  1  0
  2 29  1  0
  2 30  1  0
  5 31  1  0
  7 32  1  6
  8 33  1  0
 12 34  1  0
 13 35  1  0
 14 36  1  0
 15 37  1  0
 18 38  1  0
 18 39  1  0
 20 40  1  0
 20 41  1  0
 22 42  1  0
 23 43  1  0
 25 44  1  0
M  END
>  <vina_affinity>  (1) 
-8.092

$$$$
dec_C04150861
     RDKit          3D

 52 56  0  0  0  0  0  0  0  0999 V2000
   -8.1210   19.4610   16.7250 C   0  0  0  0  0  0  0  0  0  0  0  0
   -7.8980   20.8610   16.8980 O   0  0  0  0  0  0  0  0  0  0  0  0
   -6.7890   21.3320   16.2590 C   0  0  0  0  0  0  0  0  0  0  0  0
   -6.7750   21.7650   15.1160 O   0  0  0  0  0  0  0  0  0  0  0  0
   -5.5950   21.2910   17.1840 C   0  0  1  0  0  0  0  0  0  0  0  0
   -4.4790   20.4800   16.5710 C   0  0  0  0  0  0  0  0  0  0  0  0
   -4.4650   19.2570   16.7260 O   0  0  0  0  0  0  0  0  0  0  0  0
   -3.4090   21.1660   15.7590 C   0  0  0  0  0  0  0  0  0  0  0  0
   -3.4020   22.5120   15.6560 C   0  0  0  0  0  0  0  0  0  0  0  0
   -4.4400   23.3640   16.3790 C   0  0  0  0  0  0  0  0  0  0  0  0
   -5.0740   22.6680   17.5830 C   0  0  1  0  0  0  0  0  0  0  0  0
   -6.1380   23.5550   18.2310 C   0  0  0  0  0  0  0  0  0  0  0  0
   -2.4700   23.2850   14.9910 N   0  0  0  0  0  0  0  0  0  0  0  0
   -1.4120   22.9500   14.1210 C   0  0  0  0  0  0  0  0  0  0  0  0
   -0.5060   23.9930   13.8210 C   0  0  0  0  0  0  0  0  0  0  0  0
    0.5800   23.8080   12.9660 C   0  0  0  0  0  0  0  0  0  0  0  0
    0.7840   22.5680   12.3880 C   0  0  0  0  0  0  0  0  0  0  0  0
   -0.0860   21.5200   12.6900 C   0  0  0  0  0  0  0  0  0  0  0  0
   -1.1660   21.6750   13.5860 C   0  0  0  0  0  0  0  0  0  0  0  0
   -1.9850   20.5580   13.7850 N   0  0  0  0  0  0  0  0  0  0  0  0
   -2.4360   20.1790   15.1290 C   0  0  1  0  0  0  0  0  0  0  0  0
   -1.2720   19.7170   16.0080 C   0  0  0  0  0  0  0  0  0  0  0  0
   -1.0550   20.3510   17.2600 C   0  0  0  0  0  0  0  0  0  0  0  0
   -0.0130   19.9570   18.1060 C   0  0  0  0  0  0  0  0  0  0  0  0
    0.7970   18.9280   17.6870 C   0  0  0  0  0  0  0  0  0  0  0  0
    0.6020   18.3010   16.4800 C   0  0  0  0  0  0  0  0  0  0  0  0
   -0.4170   18.6670   15.6250 C   0  0  0  0  0  0  0  0  0  0  0  0
    1.5090   17.3120   16.2560 O   0  0  0  0  0  0  0  0  0  0  0  0
    2.2930   17.3870   17.4640 C   0  0  0  0  0  0  0  0  0  0  0  0
    1.8510   18.4150   18.3750 O   0  0  0  0  0  0  0  0  0  0  0  0
   -8.1980   18.9775   17.7100 H   0  0  0  0  0  0  0  0  0  0  0  0
   -9.0553   19.3049   16.1659 H   0  0  0  0  0  0  0  0  0  0  0  0
   -7.2814   19.0223   16.1659 H   0  0  0  0  0  0  0  0  0  0  0  0
   -5.9499   20.8115   18.1082 H   0  0  0  0  0  0  0  0  0  0  0  0
   -3.9510   24.2855   16.7281 H   0  0  0  0  0  0  0  0  0  0  0  0
   -5.2485   23.5647   15.6607 H   0  0  0  0  0  0  0  0  0  0  0  0
   -4.3068   22.5045   18.3541 H   0  0  0  0  0  0  0  0  0  0  0  0
   -6.0556   23.4863   19.3258 H   0  0  0  0  0  0  0  0  0  0  0  0
   -5.9868   24.5982   17.9167 H   0  0  0  0  0  0  0  0  0  0  0  0
   -7.1370   23.2185   17.9167 H   0  0  0  0  0  0  0  0  0  0  0  0
   -2.6840   24.2780   14.9660 H   0  0  0  0  0  0  0  0  0  0  0  0
   -0.6627   24.9819   14.2765 H   0  0  0  0  0  0  0  0  0  0  0  0
    1.2676   24.6399   12.7533 H   0  0  0  0  0  0  0  0  0  0  0  0
    1.6246   22.4096   11.6964 H   0  0  0  0  0  0  0  0  0  0  0  0
    0.0747   20.5412   12.2146 H   0  0  0  0  0  0  0  0  0  0  0  0
   -1.5850   19.7390   13.3380 H   0  0  0  0  0  0  0  0  0  0  0  0
   -3.0695   19.2861   15.0220 H   0  0  0  0  0  0  0  0  0  0  0  0
   -1.7206   21.1696   17.5713 H   0  0  0  0  0  0  0  0  0  0  0  0
    0.1527   20.4535   19.0735 H   0  0  0  0  0  0  0  0  0  0  0  0
   -0.5581   18.1493   14.6648 H   0  0  0  0  0  0  0  0  0  0  0  0
    2.2330   16.4167   17.9786 H   0  0  0  0  0  0  0  0  0  0  0  0
    3.3216   17.6391   17.1666 H   0  0  0  0  0  0  0  0  0  0  0  0
  1  2  1  0
  2  3  1  0
  3  4  2  0
  3  5  1  0
  5  6  1  0
  6  7  2  0
  6  8  1  0
  8  9  2  0
  9 10  1  0
 10 11  1  0
 11 12  1  0
  9 13  1  0
 13 14  1  0
 14 15  2  0
 15 16  1  0
 16 17  2  0
 17 18  1  0
 18 19  2  0
 19 20  1  0
 20 21  1  0
 21 22  1  0
 22 23  2  0
 23 24  1  0
 24 25  2  0
 25 26  1  0
 26 27  2  0
 26 28  1  0
 28 29  1  0
 29 30  1  0
 11  5  1  0
 19 14  1  0
 27 22  1  0
 21  8  1  0
 30 25  1  0
  1 31  1  0
  1 32  1  0
  1 33  1  0
  5 34  1  1
 10 35  1  0
 10 36  1  0
 11 37  1  1
 12 38  1  0
 12 39  1  0
 12 40  1  0
 13 41  1  0
 15 42  1  0
 16 43  1  0
 17 44  1  0
 18 45  1  0
 20 46  1  0
 21 47  1  6
 23 48  1  0
 24 49  1  0
 27 50  1  0
 29 51  1  0
 29 52  1  0
M  END
>  <vina_affinity>  (1) 
-5.785

$$$$
dec_C62497434
     RDKit          3D

 46 48  0  0  0  0  0  0  0  0999 V2000
   -2.2700   32.6460   10.8350 C   0  0  0  0  0  0  0  0  0  0  0  0
   -1.7430   32.1750    9.6910 C   0  0  0  0  0  0  0  0  0  0  0  0
   -0.7700   33.0180    8.9070 C   0  0  0  0  0  0  0  0  0  0  0  0
   -2.0180   30.8200    9.0650 C   0  0  0  0  0  0  0  0  0  0  0  0
   -1.2650   29.7290    9.6750 N   0  0  0  0  0  0  0  0  0  0  0  0
   -1.8450   29.0370   10.7350 C   0  0  0  0  0  0  0  0  0  0  0  0
   -2.9440   29.3220   11.2110 O   0  0  0  0  0  0  0  0  0  0  0  0
   -1.0520   27.8200   11.2270 C   0  0  1  0  0  0  0  0  0  0  0  0
   -1.4200   26.5600   10.4210 C   0  0  0  0  0  0  0  0  0  0  0  0
   -0.7090   25.3140   10.8930 C   0  0  0  0  0  0  0  0  0  0  0  0
   -1.1450   24.6310   12.0330 C   0  0  0  0  0  0  0  0  0  0  0  0
   -0.4750   23.4870   12.4730 C   0  0  0  0  0  0  0  0  0  0  0  0
    0.6360   23.0000   11.7750 C   0  0  0  0  0  0  0  0  0  0  0  0
    1.3750   21.7940   12.2710 C   0  0  0  0  0  0  0  0  0  0  0  0
    1.0830   23.6940   10.6460 C   0  0  0  0  0  0  0  0  0  0  0  0
    0.4150   24.8390   10.2060 C   0  0  0  0  0  0  0  0  0  0  0  0
    0.3680   27.9770   11.2260 O   0  0  0  0  0  0  0  0  0  0  0  0
    0.8500   28.5990   10.1070 C   0  0  0  0  0  0  0  0  0  0  0  0
    2.1860   28.3440    9.8060 C   0  0  0  0  0  0  0  0  0  0  0  0
    2.7760   28.9380    8.6910 C   0  0  0  0  0  0  0  0  0  0  0  0
    2.0510   29.8280    7.8990 C   0  0  0  0  0  0  0  0  0  0  0  0
    2.6050   30.3210    6.7110 N   0  0  0  0  0  0  0  0  0  0  0  0
    0.6980   30.0460    8.1900 C   0  0  0  0  0  0  0  0  0  0  0  0
    0.0860   29.4610    9.3110 C   0  0  0  0  0  0  0  0  0  0  0  0
   -2.9801   32.0312   11.4075 H   0  0  0  0  0  0  0  0  0  0  0  0
   -1.9910   33.6461   11.1983 H   0  0  0  0  0  0  0  0  0  0  0  0
   -0.1256   33.5763    9.6021 H   0  0  0  0  0  0  0  0  0  0  0  0
   -0.1490   32.3676    8.2734 H   0  0  0  0  0  0  0  0  0  0  0  0
   -1.3253   33.7253    8.2734 H   0  0  0  0  0  0  0  0  0  0  0  0
   -3.0912   30.6013    9.1675 H   0  0  0  0  0  0  0  0  0  0  0  0
   -1.7011   30.8811    8.0134 H   0  0  0  0  0  0  0  0  0  0  0  0
   -1.3488   27.7134   12.2808 H   0  0  0  0  0  0  0  0  0  0  0  0
   -2.5043   26.3959   10.5071 H   0  0  0  0  0  0  0  0  0  0  0  0
   -1.1062   26.7376    9.3818 H   0  0  0  0  0  0  0  0  0  0  0  0
   -2.0218   24.9973   12.5871 H   0  0  0  0  0  0  0  0  0  0  0  0
   -0.8236   22.9644   13.3759 H   0  0  0  0  0  0  0  0  0  0  0  0
    1.3765   21.7916   13.3710 H   0  0  0  0  0  0  0  0  0  0  0  0
    0.8796   20.8834   11.9030 H   0  0  0  0  0  0  0  0  0  0  0  0
    2.4112   21.8219   11.9030 H   0  0  0  0  0  0  0  0  0  0  0  0
    1.9680   23.3351   10.1001 H   0  0  0  0  0  0  0  0  0  0  0  0
    0.7745   25.3716    9.3132 H   0  0  0  0  0  0  0  0  0  0  0  0
    2.7759   27.6736   10.4484 H   0  0  0  0  0  0  0  0  0  0  0  0
    3.8196   28.7032    8.4345 H   0  0  0  0  0  0  0  0  0  0  0  0
    3.1210   29.6330    6.1730 H   0  0  0  0  0  0  0  0  0  0  0  0
    1.9520   30.8470    6.1380 H   0  0  0  0  0  0  0  0  0  0  0  0
    0.1018   30.6893    7.5261 H   0  0  0  0  0  0  0  0  0  0  0  0
  1  2  2  0
  2  3  1  0
  2  4  1  0
  4  5  1  0
  5  6  1  0
  6  7  2  0
  6  8  1  0
  8  9  1  0
  9 10  1  0
 10 11  2  0
 11 12  1  0
 12 13  2  0
 13 14  1  0
 13 15  1  0
 15 16  2  0
  8 17  1  0
 17 18  1  0
 18 19  2  0
 19 20  1  0
 20 21  2  0
 21 22  1  0
 21 23  1  0
 23 24  2  0
 24  5  1  0
 16 10  1  0
 24 18  1  0
  1 25  1  0
  1 26  1  0
  3 27  1  0
  3 28  1  0
  3 29  1  0
  4 30  1  0
  4 31  1  0
  8 32  1  1
  9 33  1  0
  9 34  1  0
 11 35  1  0
 12 36  1  0
 14 37  1  0
 14 38  1  0
 14 39  1  0
 15 40  1  0
 16 41  1  0
 19 42  1  0
 20 43  1  0
 22 44  1  0
 22 45  1  0
 23 46  1  0
M  END
>  <vina_affinity>  (1) 
-8.270

$$$$
dec_C50389332
     RDKit          3D

 38 39  0  0  0  0  0  0  0  0999 V2000
    0.8340   24.4230   12.3360 C   0  0  0  0  0  0  0  0  0  0  0  0
   -0.6420   24.7090   12.0600 C   0  0  1  0  0  0  0  0  0  0  0  0
   -1.5350   24.3800   13.2650 C   0  0  0  0  0  0  0  0  0  0  0  0
   -2.0670   25.6220   13.9630 C   0  0  0  0  0  0  0  0  0  0  0  0
   -3.3890   25.9420   13.7970 N   0  0  0  0  0  0  0  0  0  0  0  0
   -1.2400   26.3260   14.6820 N   0  0  0  0  0  0  0  0  0  0  0  0
   -1.8950   27.4430   15.2280 O   0  0  0  0  0  0  0  0  0  0  0  0
   -0.8330   26.0870   11.6270 N   0  0  0  0  0  0  0  0  0  0  0  0
   -1.0490   26.4340   10.3070 C   0  0  0  0  0  0  0  0  0  0  0  0
   -1.1910   25.5710    9.4420 O   0  0  0  0  0  0  0  0  0  0  0  0
   -1.0790   27.8700   10.0490 C   0  0  0  0  0  0  0  0  0  0  0  0
   -0.3290   28.6410    9.1730 C   0  0  0  0  0  0  0  0  0  0  0  0
   -0.6710   30.0270    9.2220 C   0  0  0  0  0  0  0  0  0  0  0  0
   -1.6750   30.2630   10.1390 C   0  0  0  0  0  0  0  0  0  0  0  0
   -2.1820   28.8500   10.9320 S   0  0  0  0  0  0  0  0  0  0  0  0
   -2.2510   31.6060   10.4620 C   0  0  0  0  0  0  0  0  0  0  0  0
   -1.8700   32.6300    9.3790 C   0  0  0  0  0  0  0  0  0  0  0  0
   -0.3920   32.5130    8.9790 C   0  0  0  0  0  0  0  0  0  0  0  0
   -0.0690   31.1270    8.3990 C   0  0  0  0  0  0  0  0  0  0  0  0
    1.0042   24.3900   13.4223 H   0  0  0  0  0  0  0  0  0  0  0  0
    1.1091   23.4548   11.8922 H   0  0  0  0  0  0  0  0  0  0  0  0
    1.4508   25.2183   11.8922 H   0  0  0  0  0  0  0  0  0  0  0  0
   -0.9518   24.0423   11.2418 H   0  0  0  0  0  0  0  0  0  0  0  0
   -2.3887   23.7805   12.9161 H   0  0  0  0  0  0  0  0  0  0  0  0
   -0.9193   23.8304   13.9923 H   0  0  0  0  0  0  0  0  0  0  0  0
   -3.8000   25.7360   12.8940 H   0  0  0  0  0  0  0  0  0  0  0  0
   -3.5760   26.8900   14.1170 H   0  0  0  0  0  0  0  0  0  0  0  0
   -1.2040   28.1310   15.1920 H   0  0  0  0  0  0  0  0  0  0  0  0
   -0.5270   26.8030   12.2770 H   0  0  0  0  0  0  0  0  0  0  0  0
    0.4467   28.2288    8.5109 H   0  0  0  0  0  0  0  0  0  0  0  0
   -3.3468   31.5266   10.5156 H   0  0  0  0  0  0  0  0  0  0  0  0
   -1.8476   31.9432   11.4282 H   0  0  0  0  0  0  0  0  0  0  0  0
   -2.4943   32.4571    8.4900 H   0  0  0  0  0  0  0  0  0  0  0  0
   -2.0351   33.6378    9.7878 H   0  0  0  0  0  0  0  0  0  0  0  0
   -0.1659   33.2781    8.2217 H   0  0  0  0  0  0  0  0  0  0  0  0
    0.2203   32.6588    9.8811 H   0  0  0  0  0  0  0  0  0  0  0  0
   -0.4690   31.0666    7.3761 H   0  0  0  0  0  0  0  0  0  0  0  0
    1.0236   30.9997    8.4033 H   0  0  0  0  0  0  0  0  0  0  0  0
  1  2  1  0
  2  3  1  0
  3  4  1  0
  4  5  1  0
  4  6  2  0
  6  7  1  0
  2  8  1  0
  8  9  1  0
  9 10  2  0
  9 11  1  0
 11 12  2  0
 12 13  1  0
 13 14  2  0
 14 15  1  0
 14 16  1  0
 16 17  1  0
 17 18  1  0
 18 19  1  0
 15 11  1  0
 19 13  1  0
  1 20  1  0
  1 21  1  0
  1 22  1  0
  2 23  1  6
  3 24  1  0
  3 25  1  0
  5 26  1  0
  5 27  1  0
  7 28  1  0
  8 29  1  0
 12 30  1  0
 16 31  1  0
 16 32  1  0
 17 33  1  0
 17 34  1  0
 18 35  1  0
 18 36  1  0
 19 37  1  0
 19 38  1  0
M  END
>  <vina_affinity>  (1) 
-6.897

$$$$
dec_C66675525
     RDKit          3D

 57 58  0  0  0  0  0  0  0  0999 V2000
    1.8660   30.7120    7.4300 C   0  0  0  0  0  0  0  0  0  0  0  0
    2.2710   29.5500    8.2910 C   0  0  0  0  0  0  0  0  0  0  0  0
    3.4150   28.8110    7.9240 C   0  0  0  0  0  0  0  0  0  0  0  0
    3.8010   27.6690    8.6310 C   0  0  0  0  0  0  0  0  0  0  0  0
    4.9270   26.8810    8.3130 N   0  0  0  0  0  0  0  0  0  0  0  0
    5.0120   25.8640    7.3750 C   0  0  0  0  0  0  0  0  0  0  0  0
    4.1160   25.4960    6.6230 O   0  0  0  0  0  0  0  0  0  0  0  0
    6.3990   25.2240    7.3360 C   0  0  1  0  0  0  0  0  0  0  0  0
    6.3090   23.6930    7.2470 C   0  0  0  0  0  0  0  0  0  0  0  0
    7.4930   23.0610    6.5150 C   0  0  0  0  0  0  0  0  0  0  0  0
    8.7600   23.8950    6.6610 C   0  0  0  0  0  0  0  0  0  0  0  0
    8.5780   25.2410    6.1210 N   0  0  0  0  0  0  0  0  0  0  0  0
    9.6220   25.7970    5.4160 C   0  0  0  0  0  0  0  0  0  0  0  0
    9.2930   26.6930    4.4550 N   0  0  0  0  0  0  0  0  0  0  0  0
   10.8040   25.5160    5.5860 O   0  0  0  0  0  0  0  0  0  0  0  0
    7.2230   25.8060    6.1820 C   0  0  0  0  0  0  0  0  0  0  0  0
    3.0190   27.2520    9.7120 C   0  0  0  0  0  0  0  0  0  0  0  0
    1.8950   27.9860   10.0960 C   0  0  0  0  0  0  0  0  0  0  0  0
    1.5490   29.1600    9.4240 C   0  0  0  0  0  0  0  0  0  0  0  0
    0.4310   29.8050    9.8840 O   0  0  0  0  0  0  0  0  0  0  0  0
   -0.7850   29.4570    9.1980 C   0  0  1  0  0  0  0  0  0  0  0  0
   -1.5590   28.5090   10.1190 C   0  0  0  0  0  0  0  0  0  0  0  0
   -1.6490   30.7140    8.9610 C   0  0  0  0  0  0  0  0  0  0  0  0
   -1.1580   32.0150    9.6230 C   0  0  0  0  0  0  0  0  0  0  0  0
   -2.2710   32.5920   10.5070 C   0  0  0  0  0  0  0  0  0  0  0  0
   -0.7170   33.0680    8.6050 C   0  0  0  0  0  0  0  0  0  0  0  0
    1.5714   31.5571    8.0695 H   0  0  0  0  0  0  0  0  0  0  0  0
    2.7131   31.0106    6.7949 H   0  0  0  0  0  0  0  0  0  0  0  0
    1.0169   30.4194    6.7949 H   0  0  0  0  0  0  0  0  0  0  0  0
    4.0158   29.1404    7.0635 H   0  0  0  0  0  0  0  0  0  0  0  0
    5.7740   27.1090    8.8170 H   0  0  0  0  0  0  0  0  0  0  0  0
    6.9136   25.4618    8.2787 H   0  0  0  0  0  0  0  0  0  0  0  0
    6.2713   23.2852    8.2679 H   0  0  0  0  0  0  0  0  0  0  0  0
    5.4030   23.4520    6.6717 H   0  0  0  0  0  0  0  0  0  0  0  0
    7.6759   22.0597    6.9321 H   0  0  0  0  0  0  0  0  0  0  0  0
    7.2426   23.0044    5.4454 H   0  0  0  0  0  0  0  0  0  0  0  0
    9.0186   23.9693    7.7276 H   0  0  0  0  0  0  0  0  0  0  0  0
    9.5657   23.4020    6.0973 H   0  0  0  0  0  0  0  0  0  0  0  0
   10.1120   27.1110    4.0330 H   0  0  0  0  0  0  0  0  0  0  0  0
    8.5730   27.3640    4.6720 H   0  0  0  0  0  0  0  0  0  0  0  0
    7.3000   26.8950    6.3169 H   0  0  0  0  0  0  0  0  0  0  0  0
    6.7108   25.5517    5.2423 H   0  0  0  0  0  0  0  0  0  0  0  0
    3.2908   26.3399   10.2636 H   0  0  0  0  0  0  0  0  0  0  0  0
    1.2764   27.6362   10.9356 H   0  0  0  0  0  0  0  0  0  0  0  0
   -0.5537   28.9972    8.2258 H   0  0  0  0  0  0  0  0  0  0  0  0
   -1.3499   28.7651   11.1681 H   0  0  0  0  0  0  0  0  0  0  0  0
   -2.6372   28.6086    9.9252 H   0  0  0  0  0  0  0  0  0  0  0  0
   -1.2458   27.4725    9.9252 H   0  0  0  0  0  0  0  0  0  0  0  0
   -1.6971   30.8877    7.8759 H   0  0  0  0  0  0  0  0  0  0  0  0
   -2.6197   30.4950    9.4297 H   0  0  0  0  0  0  0  0  0  0  0  0
   -0.2762   31.7586   10.2285 H   0  0  0  0  0  0  0  0  0  0  0  0
   -2.0064   32.4549   11.5659 H   0  0  0  0  0  0  0  0  0  0  0  0
   -2.3890   33.6648   10.2945 H   0  0  0  0  0  0  0  0  0  0  0  0
   -3.2157   32.0701   10.2945 H   0  0  0  0  0  0  0  0  0  0  0  0
   -0.3447   33.9571    9.1350 H   0  0  0  0  0  0  0  0  0  0  0  0
    0.0838   32.6552    7.9739 H   0  0  0  0  0  0  0  0  0  0  0  0
   -1.5730   33.3490    7.9739 H   0  0  0  0  0  0  0  0  0  0  0  0
  1  2  1  0
  2  3  2  0
  3  4  1  0
  4  5  1  0
  5  6  1  0
  6  7  2  0
  6  8  1  0
  8  9  1  0
  9 10  1  0
 10 11  1  0
 11 12  1  0
 12 13  1  0
 13 14  1  0
 13 15  2  0
 12 16  1  0
  4 17  2  0
 17 18  1  0
 18 19  2  0
 19 20  1  0
 20 21  1  0
 21 22  1  0
 21 23  1  0
 23 24  1  0
 24 25  1  0
 24 26  1  0
 19  2  1  0
 16  8  1  0
  1 27  1  0
  1 28  1  0
  1 29  1  0
  3 30  1  0
  5 31  1  0
  8 32  1  1
  9 33  1  0
  9 34  1  0
 10 35  1  0
 10 36  1  0
 11 37  1  0
 11 38  1  0
 14 39  1  0
 14 40  1  0
 16 41  1  0
 16 42  1  0
 17 43  1  0
 18 44  1  0
 21 45  1  6
 22 46  1  0
 22 47  1  0
 22 48  1  0
 23 49  1  0
 23 50  1  0
 24 51  1  0
 25 52  1  0
 25 53  1  0
 25 54  1  0
 26 55  1  0
 26 56  1  0
 26 57  1  0
M  END
>  <vina_affinity>  (1) 
-8.043

$$$$
dec_C17067434
     RDKit          3D

 39 40  0  0  0  0  0  0  0  0999 V2000
   -1.1450   26.7390    9.8840 C   0  0  0  0  0  0  0  0  0  0  0  0
   -1.5990   28.0300   10.5400 C   0  0  0  0  0  0  0  0  0  0  0  0
   -2.3640   28.0980   11.5950 N   0  0  0  0  0  0  0  0  0  0  0  0
   -2.6690   26.9430   12.2670 N   0  0  0  0  0  0  0  0  0  0  0  0
   -1.9870   26.6010   13.4350 C   0  0  0  0  0  0  0  0  0  0  0  0
   -0.9660   27.1390   13.8510 O   0  0  0  0  0  0  0  0  0  0  0  0
   -2.6030   25.5000   14.2310 C   0  0  0  0  0  0  0  0  0  0  0  0
   -3.9580   25.5140   14.5900 C   0  0  0  0  0  0  0  0  0  0  0  0
   -4.4920   24.4600   15.3330 C   0  0  0  0  0  0  0  0  0  0  0  0
   -3.6690   23.3850   15.7110 C   0  0  0  0  0  0  0  0  0  0  0  0
   -4.2810   22.3210   16.5020 N   0  0  0  0  0  0  0  0  0  0  0  0
   -4.2170   22.4130   17.7350 O   0  0  0  0  0  0  0  0  0  0  0  0
   -4.8460   21.4110   15.8800 O   0  0  0  0  0  0  0  0  0  0  0  0
   -2.3140   23.3300   15.3360 C   0  0  0  0  0  0  0  0  0  0  0  0
   -1.4020   22.1920   15.6990 C   0  0  0  0  0  0  0  0  0  0  0  0
   -1.7950   24.4090   14.5980 C   0  0  0  0  0  0  0  0  0  0  0  0
   -1.1670   29.3130    9.8990 C   0  0  0  0  0  0  0  0  0  0  0  0
   -1.7430   30.5170   10.3310 C   0  0  0  0  0  0  0  0  0  0  0  0
   -1.3510   31.7160    9.7410 C   0  0  0  0  0  0  0  0  0  0  0  0
   -1.8920   32.9070   10.1290 O   0  0  0  0  0  0  0  0  0  0  0  0
   -0.3950   31.7360    8.7340 C   0  0  0  0  0  0  0  0  0  0  0  0
    0.1850   30.5410    8.3240 C   0  0  0  0  0  0  0  0  0  0  0  0
    1.1340   30.6000    7.3450 O   0  0  0  0  0  0  0  0  0  0  0  0
   -0.1890   29.3270    8.8960 C   0  0  0  0  0  0  0  0  0  0  0  0
   -0.8866   26.0042   10.6607 H   0  0  0  0  0  0  0  0  0  0  0  0
   -1.9570   26.3406    9.2579 H   0  0  0  0  0  0  0  0  0  0  0  0
   -0.2624   26.9365    9.2579 H   0  0  0  0  0  0  0  0  0  0  0  0
   -3.6700   26.7700   12.2920 H   0  0  0  0  0  0  0  0  0  0  0  0
   -4.5995   26.3545   14.2866 H   0  0  0  0  0  0  0  0  0  0  0  0
   -5.5534   24.4706   15.6218 H   0  0  0  0  0  0  0  0  0  0  0  0
   -1.3361   22.1098   16.7939 H   0  0  0  0  0  0  0  0  0  0  0  0
   -1.8020   21.2549   15.2844 H   0  0  0  0  0  0  0  0  0  0  0  0
   -0.4003   22.3783   15.2844 H   0  0  0  0  0  0  0  0  0  0  0  0
   -0.7357   24.3993   14.3019 H   0  0  0  0  0  0  0  0  0  0  0  0
   -2.4989   30.5140   11.1301 H   0  0  0  0  0  0  0  0  0  0  0  0
   -1.7130   33.0390   11.0740 H   0  0  0  0  0  0  0  0  0  0  0  0
   -0.1000   32.6868    8.2660 H   0  0  0  0  0  0  0  0  0  0  0  0
    1.9950   30.3530    7.7180 H   0  0  0  0  0  0  0  0  0  0  0  0
    0.2790   28.3887    8.5634 H   0  0  0  0  0  0  0  0  0  0  0  0
  1  2  1  0
  2  3  2  0
  3  4  1  0
  4  5  1  0
  5  6  2  0
  5  7  1  0
  7  8  2  0
  8  9  1  0
  9 10  2  0
 10 11  1  0
 11 12  2  0
 11 13  1  0
 10 14  1  0
 14 15  1  0
 14 16  2  0
  2 17  1  0
 17 18  2  0
 18 19  1  0
 19 20  1  0
 19 21  2  0
 21 22  1  0
 22 23  1  0
 22 24  2  0
 16  7  1  0
 24 17  1  0
  1 25  1  0
  1 26  1  0
  1 27  1  0
  4 28  1  0
  8 29  1  0
  9 30  1  0
 15 31  1  0
 15 32  1  0
 15 33  1  0
 16 34  1  0
 18 35  1  0
 20 36  1  0
 21 37  1  0
 23 38  1  0
 24 39  1  0
M  CHG  2  11   1  13  -1
M  END
>  <vina_affinity>  (1) 
-7.937

$$$$
dec_C67104511
     RDKit          3D

 59 60  0  0  0  0  0  0  0  0999 V2000
   -2.2740   33.1310   10.9630 C   0  0  0  0  0  0  0  0  0  0  0  0
   -1.5010   32.1850   10.0400 C   0  0  0  0  0  0  0  0  0  0  0  0
   -0.7690   32.9950    8.9720 C   0  0  0  0  0  0  0  0  0  0  0  0
   -2.4630   31.1320    9.4520 C   0  0  0  0  0  0  0  0  0  0  0  0
   -2.3500   29.7490   10.0990 C   0  0  0  0  0  0  0  0  0  0  0  0
   -0.9330   29.3490   10.4590 C   0  0  0  0  0  0  0  0  0  0  0  0
   -0.5240   29.1690   11.6040 O   0  0  0  0  0  0  0  0  0  0  0  0
   -0.1020   29.2390    9.3570 N   0  0  0  0  0  0  0  0  0  0  0  0
    1.1560   28.6270    9.5960 N   0  0  0  0  0  0  0  0  0  0  0  0
    2.2020   29.0830    8.8180 C   0  0  0  0  0  0  0  0  0  0  0  0
    2.1300   30.0860    8.1160 O   0  0  0  0  0  0  0  0  0  0  0  0
    3.3160   28.2940    8.9430 N   0  0  0  0  0  0  0  0  0  0  0  0
    4.5520   28.6290    8.2760 C   0  0  0  0  0  0  0  0  0  0  0  0
    4.7400   27.8090    7.0230 C   0  0  0  0  0  0  0  0  0  0  0  0
    4.1090   28.1870    5.8310 C   0  0  0  0  0  0  0  0  0  0  0  0
    4.2980   27.4520    4.6600 C   0  0  0  0  0  0  0  0  0  0  0  0
    5.1230   26.3190    4.6570 C   0  0  0  0  0  0  0  0  0  0  0  0
    5.3080   25.5150    3.3970 C   0  0  0  0  0  0  0  0  0  0  0  0
    6.4760   25.9940    2.5570 N   0  0  0  0  0  0  0  0  0  0  0  0
    6.6160   27.5000    2.6230 C   0  0  0  0  0  0  0  0  0  0  0  0
    7.9780   27.9150    2.0980 C   0  0  0  0  0  0  0  0  0  0  0  0
    9.1060   27.3500    2.9590 C   0  0  0  0  0  0  0  0  0  0  0  0
    8.7240   26.0400    3.6470 C   0  0  0  0  0  0  0  0  0  0  0  0
    7.7590   25.2230    2.8050 C   0  0  0  0  0  0  0  0  0  0  0  0
    5.7670   25.9480    5.8460 C   0  0  0  0  0  0  0  0  0  0  0  0
    5.5780   26.6880    7.0170 C   0  0  0  0  0  0  0  0  0  0  0  0
   -2.0635   32.8734   12.0115 H   0  0  0  0  0  0  0  0  0  0  0  0
   -1.9614   34.1679   10.7703 H   0  0  0  0  0  0  0  0  0  0  0  0
   -3.3524   33.0313   10.7703 H   0  0  0  0  0  0  0  0  0  0  0  0
   -0.7338   31.6347   10.6045 H   0  0  0  0  0  0  0  0  0  0  0  0
   -0.1070   33.7275    9.4570 H   0  0  0  0  0  0  0  0  0  0  0  0
   -0.1700   32.3182    8.3449 H   0  0  0  0  0  0  0  0  0  0  0  0
   -1.5027   33.5226    8.3449 H   0  0  0  0  0  0  0  0  0  0  0  0
   -3.4934   31.4927    9.5864 H   0  0  0  0  0  0  0  0  0  0  0  0
   -2.1894   31.0095    8.3936 H   0  0  0  0  0  0  0  0  0  0  0  0
   -2.9538   29.7472   11.0185 H   0  0  0  0  0  0  0  0  0  0  0  0
   -2.7065   29.0206    9.3558 H   0  0  0  0  0  0  0  0  0  0  0  0
   -0.5100   29.0160    8.4490 H   0  0  0  0  0  0  0  0  0  0  0  0
    1.0800   27.6140    9.6910 H   0  0  0  0  0  0  0  0  0  0  0  0
    3.3730   27.7310    9.7790 H   0  0  0  0  0  0  0  0  0  0  0  0
    4.5361   29.6955    8.0070 H   0  0  0  0  0  0  0  0  0  0  0  0
    5.3852   28.4121    8.9606 H   0  0  0  0  0  0  0  0  0  0  0  0
    3.4573   29.0730    5.8178 H   0  0  0  0  0  0  0  0  0  0  0  0
    3.7958   27.7641    3.7324 H   0  0  0  0  0  0  0  0  0  0  0  0
    5.4820   24.4646    3.6734 H   0  0  0  0  0  0  0  0  0  0  0  0
    4.3965   25.6340    2.7929 H   0  0  0  0  0  0  0  0  0  0  0  0
    6.2150   25.7740    1.5890 H   0  0  0  0  0  0  0  0  0  0  0  0
    5.8310   27.9666    2.0098 H   0  0  0  0  0  0  0  0  0  0  0  0
    6.5152   27.8279    3.6681 H   0  0  0  0  0  0  0  0  0  0  0  0
    8.0930   27.5430    1.0692 H   0  0  0  0  0  0  0  0  0  0  0  0
    8.0389   29.0129    2.1266 H   0  0  0  0  0  0  0  0  0  0  0  0
    9.9810   27.1684    2.3176 H   0  0  0  0  0  0  0  0  0  0  0  0
    9.3241   28.0870    3.7459 H   0  0  0  0  0  0  0  0  0  0  0  0
    9.6355   25.4488    3.8189 H   0  0  0  0  0  0  0  0  0  0  0  0
    8.2271   26.2844    4.5975 H   0  0  0  0  0  0  0  0  0  0  0  0
    8.2316   24.9888    1.8397 H   0  0  0  0  0  0  0  0  0  0  0  0
    7.5153   24.2968    3.3461 H   0  0  0  0  0  0  0  0  0  0  0  0
    6.4263   25.0675    5.8575 H   0  0  0  0  0  0  0  0  0  0  0  0
    6.0923   26.3866    7.9415 H   0  0  0  0  0  0  0  0  0  0  0  0
  1  2  1  0
  2  3  1  0
  2  4  1  0
  4  5  1  0
  5  6  1  0
  6  7  2  0
  6  8  1  0
  8  9  1  0
  9 10  1  0
 10 11  2  0
 10 12  1  0
 12 13  1  0
 13 14  1  0
 14 15  2  0
 15 16  1  0
 16 17  2  0
 17 18  1  0
 18 19  1  0
 19 20  1  0
 20 21  1  0
 21 22  1  0
 22 23  1  0
 23 24  1  0
 17 25  1  0
 25 26  2  0
 26 14  1  0
 24 19  1  0
  1 27  1  0
  1 28  1  0
  1 29  1  0
  2 30  1  0
  3 31  1  0
  3 32  1  0
  3 33  1  0
  4 34  1  0
  4 35  1  0
  5 36  1  0
  5 37  1  0
  8 38  1  0
  9 39  1  0
 12 40  1  0
 13 41  1  0
 13 42  1  0
 15 43  1  0
 16 44  1  0
 18 45  1  0
 18 46  1  0
 19 47  1  0
 20 48  1  0
 20 49  1  0
 21 50  1  0
 21 51  1  0
 22 52  1  0
 22 53  1  0
 23 54  1  0
 23 55  1  0
 24 56  1  0
 24 57  1  0
 25 58  1  0
 26 59  1  0
M  CHG  1  19   1
M  END
>  <vina_affinity>  (1) 
-7.704

$$$$
dec_C23969551
     RDKit          3D

 52 56  0  0  0  0  0  0  0  0999 V2000
   -1.3020   26.5770   14.9640 C   0  0  0  0  0  0  0  0  0  0  0  0
   -1.0570   25.3220   14.1370 C   0  0  2  0  0  0  0  0  0  0  0  0
   -1.8180   25.3920   12.9230 O   0  0  0  0  0  0  0  0  0  0  0  0
   -1.1360   25.1320   11.7640 C   0  0  0  0  0  0  0  0  0  0  0  0
   -0.9490   24.0010   11.3260 O   0  0  0  0  0  0  0  0  0  0  0  0
   -0.6490   26.3650   11.1170 C   0  0  0  0  0  0  0  0  0  0  0  0
   -1.4640   27.4280   10.8130 N   0  0  0  0  0  0  0  0  0  0  0  0
   -0.6530   28.3330   10.2960 C   0  0  0  0  0  0  0  0  0  0  0  0
   -1.0610   29.7060   10.0020 C   0  0  0  0  0  0  0  0  0  0  0  0
   -2.0020   29.9470    8.9930 C   0  0  0  0  0  0  0  0  0  0  0  0
   -2.4150   31.2500    8.7050 C   0  0  0  0  0  0  0  0  0  0  0  0
   -1.9020   32.3200    9.4340 C   0  0  0  0  0  0  0  0  0  0  0  0
   -0.9860   32.0910   10.4590 C   0  0  0  0  0  0  0  0  0  0  0  0
   -0.5720   30.7890   10.7490 C   0  0  0  0  0  0  0  0  0  0  0  0
    0.6140   27.7700   10.1510 N   0  0  0  0  0  0  0  0  0  0  0  0
    1.7770   28.2240    9.4640 C   0  0  0  0  0  0  0  0  0  0  0  0
    1.7530   29.3300    8.6060 C   0  0  0  0  0  0  0  0  0  0  0  0
    2.9190   29.7360    7.9470 C   0  0  0  0  0  0  0  0  0  0  0  0
    4.1100   29.0370    8.1290 C   0  0  0  0  0  0  0  0  0  0  0  0
    4.1400   27.9220    8.9610 C   0  0  0  0  0  0  0  0  0  0  0  0
    2.9790   27.5110    9.6210 C   0  0  0  0  0  0  0  0  0  0  0  0
    0.6360   26.5620   10.7800 N   0  0  0  0  0  0  0  0  0  0  0  0
   -1.5640   24.1040   14.9040 C   0  0  0  0  0  0  0  0  0  0  0  0
   -2.8260   23.9490   15.1440 N   0  0  0  0  0  0  0  0  0  0  0  0
   -3.2270   22.7900   15.8320 C   0  0  0  0  0  0  0  0  0  0  0  0
   -4.5840   22.5970   16.0950 C   0  0  0  0  0  0  0  0  0  0  0  0
   -5.0220   21.4590   16.7790 C   0  0  0  0  0  0  0  0  0  0  0  0
   -4.1040   20.4990   17.2060 C   0  0  0  0  0  0  0  0  0  0  0  0
   -2.7450   20.6750   16.9510 C   0  0  0  0  0  0  0  0  0  0  0  0
   -2.3190   21.8180   16.2650 C   0  0  0  0  0  0  0  0  0  0  0  0
   -0.8940   22.0460   15.9780 C   0  0  0  0  0  0  0  0  0  0  0  0
   -0.0180   21.2760   16.3570 O   0  0  0  0  0  0  0  0  0  0  0  0
   -0.6140   23.1830   15.2690 N   0  0  0  0  0  0  0  0  0  0  0  0
   -1.2531   26.3264   16.0340 H   0  0  0  0  0  0  0  0  0  0  0  0
   -0.5334   27.3277   14.7277 H   0  0  0  0  0  0  0  0  0  0  0  0
   -2.2965   26.9835   14.7277 H   0  0  0  0  0  0  0  0  0  0  0  0
    0.0199   25.2433   13.9272 H   0  0  0  0  0  0  0  0  0  0  0  0
   -2.4190   29.1037    8.4229 H   0  0  0  0  0  0  0  0  0  0  0  0
   -3.1453   31.4309    7.9025 H   0  0  0  0  0  0  0  0  0  0  0  0
   -2.2201   33.3468    9.2005 H   0  0  0  0  0  0  0  0  0  0  0  0
   -0.5887   32.9363   11.0401 H   0  0  0  0  0  0  0  0  0  0  0  0
    0.1412   30.6113   11.5674 H   0  0  0  0  0  0  0  0  0  0  0  0
    0.8144   29.8818    8.4493 H   0  0  0  0  0  0  0  0  0  0  0  0
    2.8948   30.6117    7.2818 H   0  0  0  0  0  0  0  0  0  0  0  0
    5.0256   29.3660    7.6157 H   0  0  0  0  0  0  0  0  0  0  0  0
    5.0779   27.3640    9.0991 H   0  0  0  0  0  0  0  0  0  0  0  0
    3.0054   26.6224   10.2688 H   0  0  0  0  0  0  0  0  0  0  0  0
   -5.3158   23.3473   15.7610 H   0  0  0  0  0  0  0  0  0  0  0  0
   -6.0943   21.3200   16.9812 H   0  0  0  0  0  0  0  0  0  0  0  0
   -4.4522   19.6045   17.7431 H   0  0  0  0  0  0  0  0  0  0  0  0
   -2.0149   19.9233   17.2855 H   0  0  0  0  0  0  0  0  0  0  0  0
    0.3660   23.3920   15.1140 H   0  0  0  0  0  0  0  0  0  0  0  0
  1  2  1  0
  2  3  1  0
  3  4  1  0
  4  5  2  0
  4  6  1  0
  6  7  1  0
  7  8  2  0
  8  9  1  0
  9 10  2  0
 10 11  1  0
 11 12  2  0
 12 13  1  0
 13 14  2  0
  8 15  1  0
 15 16  1  0
 16 17  2  0
 17 18  1  0
 18 19  2  0
 19 20  1  0
 20 21  2  0
 15 22  1  0
  2 23  1  0
 23 24  2  0
 24 25  1  0
 25 26  2  0
 26 27  1  0
 27 28  2  0
 28 29  1  0
 29 30  2  0
 30 31  1  0
 31 32  2  0
 31 33  1  0
 22  6  2  0
 33 23  1  0
 14  9  1  0
 21 16  1  0
 30 25  1  0
  1 34  1  0
  1 35  1  0
  1 36  1  0
  2 37  1  6
 10 38  1  0
 11 39  1  0
 12 40  1  0
 13 41  1  0
 14 42  1  0
 17 43  1  0
 18 44  1  0
 19 45  1  0
 20 46  1  0
 21 47  1  0
 26 48  1  0
 27 49  1  0
 28 50  1  0
 29 51  1  0
 33 52  1  0
M  END
>  <vina_affinity>  (1) 
-9.756

$$$$
dec_C00312493
     RDKit          3D

 35 37  0  0  0  0  0  0  0  0999 V2000
    1.4800   31.2160    6.7190 O   0  0  0  0  0  0  0  0  0  0  0  0
    1.2120   30.4430    7.6240 C   0  0  0  0  0  0  0  0  0  0  0  0
   -0.0690   30.1610    8.0660 N   0  0  0  0  0  0  0  0  0  0  0  0
   -0.0320   29.2530    9.0890 C   0  0  0  0  0  0  0  0  0  0  0  0
   -1.1260   28.8010    9.7110 C   0  0  0  0  0  0  0  0  0  0  0  0
   -1.1770   27.8380   10.8180 C   0  0  0  0  0  0  0  0  0  0  0  0
   -1.1470   28.2430   12.1570 C   0  0  0  0  0  0  0  0  0  0  0  0
   -1.1540   27.2940   13.1850 C   0  0  0  0  0  0  0  0  0  0  0  0
   -1.1770   25.9320   12.8850 C   0  0  0  0  0  0  0  0  0  0  0  0
   -1.1880   25.5160   11.5560 C   0  0  0  0  0  0  0  0  0  0  0  0
   -1.1830   26.4660   10.5370 C   0  0  0  0  0  0  0  0  0  0  0  0
   -1.1790   26.0410    9.2640 F   0  0  0  0  0  0  0  0  0  0  0  0
    1.4220   28.9460    9.3170 C   0  0  0  0  0  0  0  0  0  0  0  0
    1.8990   28.1930   10.1450 O   0  0  0  0  0  0  0  0  0  0  0  0
    2.0870   29.7080    8.3880 N   0  0  0  0  0  0  0  0  0  0  0  0
    3.5180   29.7100    8.2110 C   0  0  0  0  0  0  0  0  0  0  0  0
    3.9690   28.5490    7.3530 C   0  0  0  0  0  0  0  0  0  0  0  0
    4.6430   27.4590    7.9280 C   0  0  0  0  0  0  0  0  0  0  0  0
    5.0810   26.4010    7.1300 C   0  0  0  0  0  0  0  0  0  0  0  0
    4.8530   26.4340    5.7600 C   0  0  0  0  0  0  0  0  0  0  0  0
    5.2750   25.4180    4.9960 F   0  0  0  0  0  0  0  0  0  0  0  0
    4.1980   27.5080    5.1690 C   0  0  0  0  0  0  0  0  0  0  0  0
    3.7590   28.5680    5.9640 C   0  0  0  0  0  0  0  0  0  0  0  0
   -0.8920   30.5810    7.6620 H   0  0  0  0  0  0  0  0  0  0  0  0
   -2.0905   29.1924    9.3554 H   0  0  0  0  0  0  0  0  0  0  0  0
   -1.1177   29.3147   12.4031 H   0  0  0  0  0  0  0  0  0  0  0  0
   -1.1413   27.6234   14.2344 H   0  0  0  0  0  0  0  0  0  0  0  0
   -1.1864   25.1887   13.6958 H   0  0  0  0  0  0  0  0  0  0  0  0
   -1.2006   24.4434   11.3122 H   0  0  0  0  0  0  0  0  0  0  0  0
    3.8174   30.6509    7.7262 H   0  0  0  0  0  0  0  0  0  0  0  0
    3.9895   29.6135    9.2001 H   0  0  0  0  0  0  0  0  0  0  0  0
    4.8265   27.4391    9.0124 H   0  0  0  0  0  0  0  0  0  0  0  0
    5.6038   25.5459    7.5833 H   0  0  0  0  0  0  0  0  0  0  0  0
    4.0268   27.5225    4.0825 H   0  0  0  0  0  0  0  0  0  0  0  0
    3.2456   29.4232    5.5003 H   0  0  0  0  0  0  0  0  0  0  0  0
  1  2  2  0
  2  3  1  0
  3  4  1  0
  4  5  2  0
  5  6  1  0
  6  7  2  0
  7  8  1  0
  8  9  2  0
  9 10  1  0
 10 11  2  0
 11 12  1  0
  4 13  1  0
 13 14  2  0
 13 15  1  0
 15 16  1  0
 16 17  1  0
 17 18  2  0
 18 19  1  0
 19 20  2  0
 20 21  1  0
 20 22  1  0
 22 23  2  0
 15  2  1  0
 23 17  1  0
 11  6  1  0
  3 24  1  0
  5 25  1  0
  7 26  1  0
  8 27  1  0
  9 28  1  0
 10 29  1  0
 16 30  1  0
 16 31  1  0
 18 32  1  0
 19 33  1  0
 22 34  1  0
 23 35  1  0
M  END
>  <vina_affinity>  (1) 
-8.391

$$$$
dec_C07375573
     RDKit          3D

 49 50  0  0  0  0  0  0  0  0999 V2000
   -0.3390   31.7180    8.4880 C   0  0  0  0  0  0  0  0  0  0  0  0
   -0.1780   30.3350    9.0830 C   0  0  0  0  0  0  0  0  0  0  0  0
    1.0720   29.6690    9.0070 C   0  0  0  0  0  0  0  0  0  0  0  0
    2.2030   30.2930    8.2120 C   0  0  0  0  0  0  0  0  0  0  0  0
    1.2670   28.4300    9.6790 C   0  0  0  0  0  0  0  0  0  0  0  0
    2.6510   27.8170    9.6930 C   0  0  0  0  0  0  0  0  0  0  0  0
    0.1570   27.8040   10.3120 C   0  0  0  0  0  0  0  0  0  0  0  0
    0.2920   26.1200   10.9840 S   0  0  0  0  0  0  0  0  0  0  0  0
    1.5910   25.8930   11.5810 O   0  0  0  0  0  0  0  0  0  0  0  0
   -0.1880   25.2030    9.9700 O   0  0  0  0  0  0  0  0  0  0  0  0
   -0.8410   26.1240   12.2720 N   0  0  0  0  0  0  0  0  0  0  0  0
   -0.3790   26.7090   13.5470 C   0  0  0  0  0  0  0  0  0  0  0  0
   -1.6050   27.0700   14.3850 C   0  0  0  0  0  0  0  0  0  0  0  0
   -2.6960   25.9860   14.3470 C   0  0  0  0  0  0  0  0  0  0  0  0
   -3.3350   25.8200   15.7150 C   0  0  0  0  0  0  0  0  0  0  0  0
   -3.3980   26.9610   16.4620 N   0  0  0  0  0  0  0  0  0  0  0  0
   -3.7710   24.7640   16.1550 O   0  0  0  0  0  0  0  0  0  0  0  0
   -2.1350   24.6580   13.8360 C   0  0  0  0  0  0  0  0  0  0  0  0
   -1.5210   24.8070   12.4460 C   0  0  0  0  0  0  0  0  0  0  0  0
   -1.1110   28.4490   10.3560 C   0  0  0  0  0  0  0  0  0  0  0  0
   -2.3020   27.8390   11.0690 C   0  0  0  0  0  0  0  0  0  0  0  0
   -1.2860   29.6890    9.6850 C   0  0  0  0  0  0  0  0  0  0  0  0
   -2.6550   30.3360    9.6230 C   0  0  0  0  0  0  0  0  0  0  0  0
   -0.4251   32.4577    9.2976 H   0  0  0  0  0  0  0  0  0  0  0  0
    0.5377   31.9544    7.8671 H   0  0  0  0  0  0  0  0  0  0  0  0
   -1.2465   31.7467    7.8671 H   0  0  0  0  0  0  0  0  0  0  0  0
    2.9524   30.7064    8.9030 H   0  0  0  0  0  0  0  0  0  0  0  0
    2.6723   29.5262    7.5782 H   0  0  0  0  0  0  0  0  0  0  0  0
    1.8046   31.0989    7.5782 H   0  0  0  0  0  0  0  0  0  0  0  0
    2.9775   27.6724   10.7334 H   0  0  0  0  0  0  0  0  0  0  0  0
    2.6269   26.8454    9.1779 H   0  0  0  0  0  0  0  0  0  0  0  0
    3.3544   28.4878    9.1779 H   0  0  0  0  0  0  0  0  0  0  0  0
    0.2390   25.9779   14.0888 H   0  0  0  0  0  0  0  0  0  0  0  0
    0.2243   27.6082   13.3534 H   0  0  0  0  0  0  0  0  0  0  0  0
   -1.2875   27.2121   15.4286 H   0  0  0  0  0  0  0  0  0  0  0  0
   -2.0368   27.9882   13.9601 H   0  0  0  0  0  0  0  0  0  0  0  0
   -3.4763   26.3110   13.6430 H   0  0  0  0  0  0  0  0  0  0  0  0
   -3.2820   27.8770   16.0500 H   0  0  0  0  0  0  0  0  0  0  0  0
   -3.8980   26.8980   17.3400 H   0  0  0  0  0  0  0  0  0  0  0  0
   -1.3603   24.3056   14.5329 H   0  0  0  0  0  0  0  0  0  0  0  0
   -2.9624   23.9360   13.7719 H   0  0  0  0  0  0  0  0  0  0  0  0
   -0.7839   24.0044   12.2957 H   0  0  0  0  0  0  0  0  0  0  0  0
   -2.3340   24.7449   11.7076 H   0  0  0  0  0  0  0  0  0  0  0  0
   -2.1559   27.9138   12.1567 H   0  0  0  0  0  0  0  0  0  0  0  0
   -3.2165   28.3797   10.7838 H   0  0  0  0  0  0  0  0  0  0  0  0
   -2.3976   26.7809   10.7838 H   0  0  0  0  0  0  0  0  0  0  0  0
   -3.0246   30.5107   10.6442 H   0  0  0  0  0  0  0  0  0  0  0  0
   -2.5833   31.2955    9.0899 H   0  0  0  0  0  0  0  0  0  0  0  0
   -3.3508   29.6715    9.0899 H   0  0  0  0  0  0  0  0  0  0  0  0
  1  2  1  0
  2  3  2  0
  3  4  1  0
  3  5  1  0
  5  6  1  0
  5  7  2  0
  7  8  1  0
  8  9  2  0
  8 10  2  0
  8 11  1  0
 11 12  1  0
 12 13  1  0
 13 14  1  0
 14 15  1  0
 15 16  1  0
 15 17  2  0
 14 18  1  0
 18 19  1  0
  7 20  1  0
 20 21  1  0
 20 22  2  0
 22 23  1  0
 22  2  1  0
 19 11  1  0
  1 24  1  0
  1 25  1  0
  1 26  1  0
  4 27  1  0
  4 28  1  0
  4 29  1  0
  6 30  1  0
  6 31  1  0
  6 32  1  0
 12 33  1  0
 12 34  1  0
 13 35  1  0
 13 36  1  0
 14 37  1  0
 16 38  1  0
 16 39  1  0
 18 40  1  0
 18 41  1  0
 19 42  1  0
 19 43  1  0
 21 44  1  0
 21 45  1  0
 21 46  1  0
 23 47  1  0
 23 48  1  0
 23 49  1  0
M  END
>  <vina_affinity>  (1) 
-8.349

$$$$
dec_C59564752
     RDKit          3D

 58 61  0  0  0  0  0  0  0  0999 V2000
   -4.0140   30.4430    9.7120 C   0  0  0  0  0  0  0  0  0  0  0  0
   -2.8810   31.1160    8.9460 C   0  0  0  0  0  0  0  0  0  0  0  0
   -1.7090   31.5720    9.8260 C   0  0  2  0  0  0  0  0  0  0  0  0
   -1.6890   33.0630   10.1360 C   0  0  0  0  0  0  0  0  0  0  0  0
   -0.4210   31.1670    9.2530 N   0  0  0  0  0  0  0  0  0  0  0  0
    0.0540   30.0920   10.0330 N   0  0  0  0  0  0  0  0  0  0  0  0
    1.1520   29.3320    9.7090 C   0  0  0  0  0  0  0  0  0  0  0  0
    1.9350   29.6930    8.5990 C   0  0  0  0  0  0  0  0  0  0  0  0
    3.0450   28.9370    8.2110 C   0  0  0  0  0  0  0  0  0  0  0  0
    3.3820   27.7870    8.9190 C   0  0  0  0  0  0  0  0  0  0  0  0
    2.6050   27.3930   10.0030 C   0  0  0  0  0  0  0  0  0  0  0  0
    1.4970   28.1560   10.3890 C   0  0  0  0  0  0  0  0  0  0  0  0
   -0.6930   30.0060   11.1340 C   0  0  0  0  0  0  0  0  0  0  0  0
   -0.4570   29.0110   12.5170 S   0  0  0  0  0  0  0  0  0  0  0  0
   -1.6040   27.6370   12.1950 C   0  0  0  0  0  0  0  0  0  0  0  0
   -1.7930   26.7920   13.4510 C   0  0  0  0  0  0  0  0  0  0  0  0
   -1.1990   27.1080   14.4830 O   0  0  0  0  0  0  0  0  0  0  0  0
   -2.6450   25.7190   13.2650 N   0  0  0  0  0  0  0  0  0  0  0  0
   -3.0090   24.7720   14.2110 C   0  0  0  0  0  0  0  0  0  0  0  0
   -4.5210   24.8190   14.9850 S   0  0  0  0  0  0  0  0  0  0  0  0
   -4.1800   23.4310   15.8920 C   0  0  0  0  0  0  0  0  0  0  0  0
   -2.9310   22.9110   15.6170 C   0  0  0  0  0  0  0  0  0  0  0  0
   -2.2270   23.7080   14.6410 C   0  0  0  0  0  0  0  0  0  0  0  0
   -0.8420   23.4080   14.1580 C   0  0  0  0  0  0  0  0  0  0  0  0
   -2.4230   21.6800   16.3170 C   0  0  0  0  0  0  0  0  0  0  0  0
   -3.5520   20.9010   17.0100 C   0  0  0  0  0  0  0  0  0  0  0  0
   -4.4930   21.8350   17.7820 C   0  0  0  0  0  0  0  0  0  0  0  0
   -5.1750   22.8460   16.8490 C   0  0  0  0  0  0  0  0  0  0  0  0
   -1.7150   30.8290   11.0680 N   0  0  0  0  0  0  0  0  0  0  0  0
   -3.8385   30.5473   10.7929 H   0  0  0  0  0  0  0  0  0  0  0  0
   -4.9693   30.9202    9.4480 H   0  0  0  0  0  0  0  0  0  0  0  0
   -4.0519   29.3758    9.4480 H   0  0  0  0  0  0  0  0  0  0  0  0
   -2.4964   30.4027    8.2021 H   0  0  0  0  0  0  0  0  0  0  0  0
   -3.3040   32.0228    8.4890 H   0  0  0  0  0  0  0  0  0  0  0  0
   -1.6870   33.2109   11.2260 H   0  0  0  0  0  0  0  0  0  0  0  0
   -0.7847   33.5155    9.7029 H   0  0  0  0  0  0  0  0  0  0  0  0
   -2.5808   33.5395    9.7029 H   0  0  0  0  0  0  0  0  0  0  0  0
   -0.4830   30.8830    8.2730 H   0  0  0  0  0  0  0  0  0  0  0  0
    1.6682   30.5910    8.0224 H   0  0  0  0  0  0  0  0  0  0  0  0
    3.6508   29.2503    7.3480 H   0  0  0  0  0  0  0  0  0  0  0  0
    4.2588   27.1926    8.6225 H   0  0  0  0  0  0  0  0  0  0  0  0
    2.8620   26.4791   10.5586 H   0  0  0  0  0  0  0  0  0  0  0  0
    0.8855   27.8266   11.2420 H   0  0  0  0  0  0  0  0  0  0  0  0
   -2.5772   28.0437   11.8827 H   0  0  0  0  0  0  0  0  0  0  0  0
   -1.1847   27.0030   11.3999 H   0  0  0  0  0  0  0  0  0  0  0  0
   -3.0810   25.5960   12.3600 H   0  0  0  0  0  0  0  0  0  0  0  0
   -0.1758   23.2637   15.0214 H   0  0  0  0  0  0  0  0  0  0  0  0
   -0.8564   22.4922   13.5489 H   0  0  0  0  0  0  0  0  0  0  0  0
   -0.4762   24.2477   13.5489 H   0  0  0  0  0  0  0  0  0  0  0  0
   -1.9422   21.0239   15.5764 H   0  0  0  0  0  0  0  0  0  0  0  0
   -1.7089   22.0005   17.0899 H   0  0  0  0  0  0  0  0  0  0  0  0
   -4.1323   20.3603   16.2479 H   0  0  0  0  0  0  0  0  0  0  0  0
   -3.0971   20.2021   17.7274 H   0  0  0  0  0  0  0  0  0  0  0  0
   -5.2657   21.2312   18.2804 H   0  0  0  0  0  0  0  0  0  0  0  0
   -3.8962   22.3937   18.5180 H   0  0  0  0  0  0  0  0  0  0  0  0
   -5.9677   22.3370   16.2810 H   0  0  0  0  0  0  0  0  0  0  0  0
   -5.6045   23.6568   17.4558 H   0  0  0  0  0  0  0  0  0  0  0  0
   -2.3620   30.9060   11.8560 H   0  0  0  0  0  0  0  0  0  0  0  0
  1  2  1  0
  3  2  1  6
  3  4  1  0
  3  5  1  0
  5  6  1  0
  6  7  1  0
  7  8  2  0
  8  9  1  0
  9 10  2  0
 10 11  1  0
 11 12  2  0
  6 13  1  0
 13 14  1  0
 14 15  1  0
 15 16  1  0
 16 17  2  0
 16 18  1  0
 18 19  1  0
 19 20  1  0
 20 21  1  0
 21 22  2  0
 22 23  1  0
 23 24  1  0
 22 25  1  0
 25 26  1  0
 26 27  1  0
 27 28  1  0
 13 29  2  0
 29  3  1  0
 12  7  1  0
 23 19  2  0
 28 21  1  0
  1 30  1  0
  1 31  1  0
  1 32  1  0
  2 33  1  0
  2 34  1  0
  4 35  1  0
  4 36  1  0
  4 37  1  0
  5 38  1  0
  8 39  1  0
  9 40  1  0
 10 41  1  0
 11 42  1  0
 12 43  1  0
 15 44  1  0
 15 45  1  0
 18 46  1  0
 24 47  1  0
 24 48  1  0
 24 49  1  0
 25 50  1  0
 25 51  1  0
 26 52  1  0
 26 53  1  0
 27 54  1  0
 27 55  1  0
 28 56  1  0
 28 57  1  0
 29 58  1  0
M  CHG  1  29   1
M  END
>  <vina_affinity>  (1) 
-9.210

$$$$
dec_C41877033
     RDKit          3D

 39 40  0  0  0  0  0  0  0  0999 V2000
    1.7840   23.8270   11.9610 C   0  0  0  0  0  0  0  0  0  0  0  0
    2.1900   25.2040   11.4520 C   0  0  0  0  0  0  0  0  0  0  0  0
    1.1540   25.8050   10.4920 C   0  0  2  0  0  0  0  0  0  0  0  0
    0.9040   27.2980   10.8230 C   0  0  0  0  0  0  0  0  0  0  0  0
   -0.0260   27.9070    9.8530 N   0  0  0  0  0  0  0  0  0  0  0  0
   -0.4920   29.2970   10.2350 C   0  0  2  0  0  0  0  0  0  0  0  0
    0.0570   29.6930   11.6310 C   0  0  0  0  0  0  0  0  0  0  0  0
   -2.1170   29.3050   10.3600 C   0  0  0  0  0  0  0  0  0  0  0  0
   -2.7620   29.6950    9.3370 O   0  0  0  0  0  0  0  0  0  0  0  0
   -2.6010   28.9250   11.4700 O   0  0  0  0  0  0  0  0  0  0  0  0
    0.0270   30.3880    9.2480 C   0  0  0  0  0  0  0  0  0  0  0  0
    0.9420   30.0230    8.2300 C   0  0  0  0  0  0  0  0  0  0  0  0
    1.4380   30.9410    7.3000 C   0  0  0  0  0  0  0  0  0  0  0  0
    1.0260   32.2630    7.3420 C   0  0  0  0  0  0  0  0  0  0  0  0
    0.1100   32.6590    8.3100 C   0  0  0  0  0  0  0  0  0  0  0  0
   -0.3940   31.7390    9.2510 C   0  0  0  0  0  0  0  0  0  0  0  0
   -1.6750   32.4830   10.4550 Br  0  0  0  0  0  0  0  0  0  0  0  0
   -1.1210   26.9670    9.5250 C   0  0  0  0  0  0  0  0  0  0  0  0
   -1.2400   25.7770   10.4930 C   0  0  0  0  0  0  0  0  0  0  0  0
   -0.0350   24.9960   10.5540 O   0  0  0  0  0  0  0  0  0  0  0  0
    1.7843   23.8279   13.0610 H   0  0  0  0  0  0  0  0  0  0  0  0
    0.7758   23.5833   11.5948 H   0  0  0  0  0  0  0  0  0  0  0  0
    2.4987   23.0753   11.5948 H   0  0  0  0  0  0  0  0  0  0  0  0
    2.3058   25.8784   12.3133 H   0  0  0  0  0  0  0  0  0  0  0  0
    3.1332   25.0905   10.8974 H   0  0  0  0  0  0  0  0  0  0  0  0
    1.5212   25.7933    9.4552 H   0  0  0  0  0  0  0  0  0  0  0  0
    0.4726   27.3753   11.8319 H   0  0  0  0  0  0  0  0  0  0  0  0
    1.8635   27.8334   10.7716 H   0  0  0  0  0  0  0  0  0  0  0  0
   -0.5701   29.2407   12.4134 H   0  0  0  0  0  0  0  0  0  0  0  0
    1.0906   29.3311   11.7347 H   0  0  0  0  0  0  0  0  0  0  0  0
    0.0397   30.7880   11.7347 H   0  0  0  0  0  0  0  0  0  0  0  0
    1.2751   28.9764    8.1691 H   0  0  0  0  0  0  0  0  0  0  0  0
    2.1562   30.6134    6.5340 H   0  0  0  0  0  0  0  0  0  0  0  0
    1.4192   32.9913    6.6175 H   0  0  0  0  0  0  0  0  0  0  0  0
   -0.2263   33.7059    8.3418 H   0  0  0  0  0  0  0  0  0  0  0  0
   -2.0701   27.5228    9.5429 H   0  0  0  0  0  0  0  0  0  0  0  0
   -0.8922   26.5476    8.5342 H   0  0  0  0  0  0  0  0  0  0  0  0
   -1.4628   26.1614   11.4993 H   0  0  0  0  0  0  0  0  0  0  0  0
   -2.0440   25.1237   10.1231 H   0  0  0  0  0  0  0  0  0  0  0  0
  1  2  1  0
  2  3  1  0
  3  4  1  0
  4  5  1  0
  5  6  1  0
  6  7  1  1
  6  8  1  0
  8  9  2  0
  8 10  1  0
  6 11  1  0
 11 12  2  0
 12 13  1  0
 13 14  2  0
 14 15  1  0
 15 16  2  0
 16 17  1  0
  5 18  1  0
 18 19  1  0
 19 20  1  0
 20  3  1  0
 16 11  1  0
  1 21  1  0
  1 22  1  0
  1 23  1  0
  2 24  1  0
  2 25  1  0
  3 26  1  6
  4 27  1  0
  4 28  1  0
  7 29  1  0
  7 30  1  0
  7 31  1  0
 12 32  1  0
 13 33  1  0
 14 34  1  0
 15 35  1  0
 18 36  1  0
 18 37  1  0
 19 38  1  0
 19 39  1  0
M  CHG  1  10  -1
M  END
>  <vina_affinity>  (1) 
-6.781

$$$$
dec_C42190770
     RDKit          3D

 33 35  0  0  0  0  0  0  0  0999 V2000
   -0.9990   25.0970   11.0520 O   0  0  0  0  0  0  0  0  0  0  0  0
   -1.5110   25.9250   11.7990 C   0  0  0  0  0  0  0  0  0  0  0  0
   -1.4920   27.2740   11.5610 N   0  0  0  0  0  0  0  0  0  0  0  0
   -0.9190   27.8380   10.3600 C   0  0  1  0  0  0  0  0  0  0  0  0
   -1.4210   29.2210   10.0600 C   0  0  0  0  0  0  0  0  0  0  0  0
   -2.7270   29.6900   10.0870 C   0  0  0  0  0  0  0  0  0  0  0  0
   -2.9650   31.0190    9.7280 C   0  0  0  0  0  0  0  0  0  0  0  0
   -1.9080   31.8530    9.3340 C   0  0  0  0  0  0  0  0  0  0  0  0
   -0.6000   31.3690    9.2880 C   0  0  0  0  0  0  0  0  0  0  0  0
   -0.3710   30.0540    9.6570 C   0  0  0  0  0  0  0  0  0  0  0  0
    0.9340   29.3180    9.6390 C   0  0  0  0  0  0  0  0  0  0  0  0
    0.6170   28.0720   10.4840 C   0  0  2  0  0  0  0  0  0  0  0  0
    1.3660   26.9510   10.0190 O   0  0  0  0  0  0  0  0  0  0  0  0
   -2.2120   25.5680   13.0870 C   0  0  0  0  0  0  0  0  0  0  0  0
   -3.2730   26.3180   13.4330 C   0  0  0  0  0  0  0  0  0  0  0  0
   -3.9620   26.0530   14.5890 N   0  0  0  0  0  0  0  0  0  0  0  0
   -3.5910   25.0230   15.4180 C   0  0  0  0  0  0  0  0  0  0  0  0
   -4.1450   24.7210   16.4610 O   0  0  0  0  0  0  0  0  0  0  0  0
   -2.3840   24.2420   14.9350 C   0  0  0  0  0  0  0  0  0  0  0  0
   -1.7360   24.5000   13.8370 N   0  0  0  0  0  0  0  0  0  0  0  0
   -1.9250   27.8740   12.2590 H   0  0  0  0  0  0  0  0  0  0  0  0
   -1.1945   27.1013    9.5910 H   0  0  0  0  0  0  0  0  0  0  0  0
   -3.5556   29.0304   10.3842 H   0  0  0  0  0  0  0  0  0  0  0  0
   -3.9908   31.4152    9.7545 H   0  0  0  0  0  0  0  0  0  0  0  0
   -2.1122   32.8982    9.0587 H   0  0  0  0  0  0  0  0  0  0  0  0
    0.2292   32.0164    8.9664 H   0  0  0  0  0  0  0  0  0  0  0  0
    1.2219   29.0419    8.6139 H   0  0  0  0  0  0  0  0  0  0  0  0
    1.7789   29.9084   10.0231 H   0  0  0  0  0  0  0  0  0  0  0  0
    0.8977   28.2115   11.5384 H   0  0  0  0  0  0  0  0  0  0  0  0
    1.3670   26.3000   10.7560 H   0  0  0  0  0  0  0  0  0  0  0  0
   -3.5902   27.1487   12.7854 H   0  0  0  0  0  0  0  0  0  0  0  0
   -4.7630   26.6110   14.8620 H   0  0  0  0  0  0  0  0  0  0  0  0
   -2.0337   23.4026   15.5536 H   0  0  0  0  0  0  0  0  0  0  0  0
  1  2  2  0
  2  3  1  0
  3  4  1  0
  4  5  1  0
  5  6  2  0
  6  7  1  0
  7  8  2  0
  8  9  1  0
  9 10  2  0
 10 11  1  0
 11 12  1  0
 12 13  1  0
  2 14  1  0
 14 15  2  0
 15 16  1  0
 16 17  1  0
 17 18  2  0
 17 19  1  0
 19 20  2  0
 12  4  1  0
 20 14  1  0
 10  5  1  0
  3 21  1  0
  4 22  1  6
  6 23  1  0
  7 24  1  0
  8 25  1  0
  9 26  1  0
 11 27  1  0
 11 28  1  0
 12 29  1  1
 13 30  1  0
 15 31  1  0
 16 32  1  0
 19 33  1  0
M  END
>  <vina_affinity>  (1) 
-7.721

$$$$
dec_C63862670
     RDKit          3D

 43 44  0  0  0  0  0  0  0  0999 V2000
    0.7440   24.4060   12.3740 C   0  0  0  0  0  0  0  0  0  0  0  0
   -0.5680   24.9680   12.8250 C   0  0  0  0  0  0  0  0  0  0  0  0
   -1.2560   24.4580   13.9800 C   0  0  0  0  0  0  0  0  0  0  0  0
   -2.4850   25.0470   14.1890 C   0  0  0  0  0  0  0  0  0  0  0  0
   -3.7530   24.7570   15.4040 S   0  0  0  0  0  0  0  0  0  0  0  0
   -5.1770   24.4460   14.5870 N   0  0  0  0  0  0  0  0  0  0  0  0
   -3.9090   26.0280   16.0660 O   0  0  0  0  0  0  0  0  0  0  0  0
   -3.3530   23.5470   16.0800 O   0  0  0  0  0  0  0  0  0  0  0  0
   -2.8040   26.2440   13.0220 S   0  0  0  0  0  0  0  0  0  0  0  0
   -1.3060   25.9770   12.2130 C   0  0  0  0  0  0  0  0  0  0  0  0
   -1.0430   26.7870   11.0330 C   0  0  0  0  0  0  0  0  0  0  0  0
   -0.3760   26.4140   10.0680 O   0  0  0  0  0  0  0  0  0  0  0  0
   -1.5590   28.0660   11.0390 N   0  0  0  0  0  0  0  0  0  0  0  0
   -1.6760   28.9480    9.8710 C   0  0  0  0  0  0  0  0  0  0  0  0
   -0.8380   30.2720    9.7750 C   0  0  1  0  0  0  0  0  0  0  0  0
    0.4430   30.0780    8.9900 C   0  0  0  0  0  0  0  0  0  0  0  0
    0.7150   30.7290    7.7340 C   0  0  0  0  0  0  0  0  0  0  0  0
    1.9440   30.3930    7.2100 C   0  0  0  0  0  0  0  0  0  0  0  0
    2.7870   29.3010    8.2110 S   0  0  0  0  0  0  0  0  0  0  0  0
    1.5160   29.2800    9.3530 C   0  0  0  0  0  0  0  0  0  0  0  0
   -1.6630   31.4680    9.3100 N   0  0  0  0  0  0  0  0  0  0  0  0
   -3.1030   31.1250    9.0540 C   0  0  0  0  0  0  0  0  0  0  0  0
   -1.5200   32.7340   10.0870 C   0  0  0  0  0  0  0  0  0  0  0  0
    1.3526   24.1453   13.2524 H   0  0  0  0  0  0  0  0  0  0  0  0
    0.5681   23.5043   11.7691 H   0  0  0  0  0  0  0  0  0  0  0  0
    1.2754   25.1554   11.7691 H   0  0  0  0  0  0  0  0  0  0  0  0
   -0.8425   23.6750   14.6326 H   0  0  0  0  0  0  0  0  0  0  0  0
   -5.1800   24.7680   13.6210 H   0  0  0  0  0  0  0  0  0  0  0  0
   -5.5790   23.5320   14.7810 H   0  0  0  0  0  0  0  0  0  0  0  0
   -2.2230   28.2600   11.7810 H   0  0  0  0  0  0  0  0  0  0  0  0
   -1.4073   28.3425    8.9928 H   0  0  0  0  0  0  0  0  0  0  0  0
   -2.7088   29.3185    9.9481 H   0  0  0  0  0  0  0  0  0  0  0  0
   -0.5298   30.5243   10.8004 H   0  0  0  0  0  0  0  0  0  0  0  0
    0.0147   31.4218    7.2446 H   0  0  0  0  0  0  0  0  0  0  0  0
    2.3348   30.7831    6.2586 H   0  0  0  0  0  0  0  0  0  0  0  0
    1.5466   28.6924   10.2824 H   0  0  0  0  0  0  0  0  0  0  0  0
   -1.2790   31.6410    8.3610 H   0  0  0  0  0  0  0  0  0  0  0  0
   -3.6264   31.0003   10.0134 H   0  0  0  0  0  0  0  0  0  0  0  0
   -3.5766   31.9355    8.4806 H   0  0  0  0  0  0  0  0  0  0  0  0
   -3.1604   30.1881    8.4806 H   0  0  0  0  0  0  0  0  0  0  0  0
   -1.5455   32.5085   11.1633 H   0  0  0  0  0  0  0  0  0  0  0  0
   -0.5621   33.2125    9.8352 H   0  0  0  0  0  0  0  0  0  0  0  0
   -2.3470   33.4142    9.8352 H   0  0  0  0  0  0  0  0  0  0  0  0
  1  2  1  0
  2  3  1  0
  3  4  2  0
  4  5  1  0
  5  6  1  0
  5  7  2  0
  5  8  2  0
  4  9  1  0
  9 10  1  0
 10 11  1  0
 11 12  2  0
 11 13  1  0
 13 14  1  0
 14 15  1  0
 15 16  1  0
 16 17  1  0
 17 18  2  0
 18 19  1  0
 19 20  1  0
 15 21  1  0
 21 22  1  0
 21 23  1  0
 10  2  2  0
 20 16  2  0
  1 24  1  0
  1 25  1  0
  1 26  1  0
  3 27  1  0
  6 28  1  0
  6 29  1  0
 13 30  1  0
 14 31  1  0
 14 32  1  0
 15 33  1  1
 17 34  1  0
 18 35  1  0
 20 36  1  0
 21 37  1  0
 22 38  1  0
 22 39  1  0
 22 40  1  0
 23 41  1  0
 23 42  1  0
 23 43  1  0
M  CHG  1  21   1
M  END
>  <vina_affinity>  (1) 
-6.769

$$$$
dec_C12567754
     RDKit          3D

 63 66  0  0  0  0  0  0  0  0999 V2000
    4.3260   27.8540    8.2570 C   0  0  0  0  0  0  0  0  0  0  0  0
    3.0830   28.6810    8.4700 C   0  0  0  0  0  0  0  0  0  0  0  0
    2.7990   29.6780    7.5270 C   0  0  0  0  0  0  0  0  0  0  0  0
    1.6780   30.5080    7.6380 C   0  0  0  0  0  0  0  0  0  0  0  0
    1.4800   31.5680    6.5850 C   0  0  0  0  0  0  0  0  0  0  0  0
    0.7770   30.3240    8.7110 C   0  0  0  0  0  0  0  0  0  0  0  0
   -0.4180   31.2460    8.8190 C   0  0  0  0  0  0  0  0  0  0  0  0
    1.0640   29.3230    9.6920 C   0  0  0  0  0  0  0  0  0  0  0  0
   -0.0770   29.1460   11.0930 S   0  0  0  0  0  0  0  0  0  0  0  0
   -1.3680   29.6560   10.6790 O   0  0  0  0  0  0  0  0  0  0  0  0
    0.5170   29.6240   12.3230 O   0  0  0  0  0  0  0  0  0  0  0  0
   -0.1980   27.4530   11.2610 N   0  0  0  0  0  0  0  0  0  0  0  0
   -0.6360   26.9610   12.5950 C   0  0  0  0  0  0  0  0  0  0  0  0
   -0.4020   25.4350   12.7020 C   0  0  0  0  0  0  0  0  0  0  0  0
   -0.6580   24.6420   11.4750 N   0  0  0  0  0  0  0  0  0  0  0  0
    0.6330   24.2660   10.8370 C   0  0  0  0  0  0  0  0  0  0  0  0
    0.9330   22.7710   10.7850 C   0  0  0  0  0  0  0  0  0  0  0  0
    2.1410   22.4120   10.2980 N   0  0  0  0  0  0  0  0  0  0  0  0
    2.4490   21.1080   10.1930 C   0  0  0  0  0  0  0  0  0  0  0  0
    3.7190   20.8270    9.7030 N   0  0  0  0  0  0  0  0  0  0  0  0
    1.5100   20.1370   10.5870 C   0  0  0  0  0  0  0  0  0  0  0  0
    1.4960   18.6810   10.5800 C   0  0  0  0  0  0  0  0  0  0  0  0
    2.6120   17.8310   10.0610 C   0  0  0  0  0  0  0  0  0  0  0  0
    0.3120   18.1820   11.1090 C   0  0  0  0  0  0  0  0  0  0  0  0
   -0.0990   16.7570   11.2920 C   0  0  0  0  0  0  0  0  0  0  0  0
   -0.7650   19.4270   11.5690 S   0  0  0  0  0  0  0  0  0  0  0  0
    0.3190   20.6410   11.0850 C   0  0  0  0  0  0  0  0  0  0  0  0
   -0.0200   21.9330   11.2110 N   0  0  0  0  0  0  0  0  0  0  0  0
   -1.5200   25.4190   10.5600 C   0  0  0  0  0  0  0  0  0  0  0  0
   -0.9680   26.8030   10.1480 C   0  0  0  0  0  0  0  0  0  0  0  0
    2.2220   28.4970    9.5780 C   0  0  0  0  0  0  0  0  0  0  0  0
    2.5630   27.4390   10.6000 C   0  0  0  0  0  0  0  0  0  0  0  0
    4.7502   27.5718    9.2319 H   0  0  0  0  0  0  0  0  0  0  0  0
    4.0697   26.9457    7.6919 H   0  0  0  0  0  0  0  0  0  0  0  0
    5.0647   28.4413    7.6919 H   0  0  0  0  0  0  0  0  0  0  0  0
    3.4787   29.8123    6.6727 H   0  0  0  0  0  0  0  0  0  0  0  0
    1.2988   32.5381    7.0708 H   0  0  0  0  0  0  0  0  0  0  0  0
    2.3812   31.6347    5.9578 H   0  0  0  0  0  0  0  0  0  0  0  0
    0.6155   31.3048    5.9578 H   0  0  0  0  0  0  0  0  0  0  0  0
   -0.6490   31.4242    9.8796 H   0  0  0  0  0  0  0  0  0  0  0  0
   -0.1882   32.2031    8.3279 H   0  0  0  0  0  0  0  0  0  0  0  0
   -1.2855   30.7809    8.3279 H   0  0  0  0  0  0  0  0  0  0  0  0
   -0.0593   27.4734   13.3791 H   0  0  0  0  0  0  0  0  0  0  0  0
   -1.7084   27.1706   12.7218 H   0  0  0  0  0  0  0  0  0  0  0  0
    0.6477   25.2766   12.9902 H   0  0  0  0  0  0  0  0  0  0  0  0
   -1.1353   25.0775   13.4399 H   0  0  0  0  0  0  0  0  0  0  0  0
    0.6231   24.6451    9.8044 H   0  0  0  0  0  0  0  0  0  0  0  0
    1.4192   24.7085   11.4663 H   0  0  0  0  0  0  0  0  0  0  0  0
    3.8780   19.8250    9.7230 H   0  0  0  0  0  0  0  0  0  0  0  0
    3.9340   21.2740    8.8230 H   0  0  0  0  0  0  0  0  0  0  0  0
    3.1718   17.4046   10.9064 H   0  0  0  0  0  0  0  0  0  0  0  0
    2.1982   17.0172    9.4474 H   0  0  0  0  0  0  0  0  0  0  0  0
    3.2866   18.4462    9.4474 H   0  0  0  0  0  0  0  0  0  0  0  0
   -0.1647   16.5294   12.3662 H   0  0  0  0  0  0  0  0  0  0  0  0
   -1.0804   16.5952   10.8223 H   0  0  0  0  0  0  0  0  0  0  0  0
    0.6455   16.0974   10.8223 H   0  0  0  0  0  0  0  0  0  0  0  0
   -1.6666   24.8257    9.6454 H   0  0  0  0  0  0  0  0  0  0  0  0
   -2.4509   25.6150   11.1123 H   0  0  0  0  0  0  0  0  0  0  0  0
   -0.3022   26.6767    9.2815 H   0  0  0  0  0  0  0  0  0  0  0  0
   -1.8221   27.4507    9.9010 H   0  0  0  0  0  0  0  0  0  0  0  0
    2.4305   27.8502   11.6116 H   0  0  0  0  0  0  0  0  0  0  0  0
    1.8986   26.5725   10.4664 H   0  0  0  0  0  0  0  0  0  0  0  0
    3.6083   27.1236   10.4664 H   0  0  0  0  0  0  0  0  0  0  0  0
  1  2  1  0
  2  3  2  0
  3  4  1  0
  4  5  1  0
  4  6  2  0
  6  7  1  0
  6  8  1  0
  8  9  1  0
  9 10  2  0
  9 11  2  0
  9 12  1  0
 12 13  1  0
 13 14  1  0
 14 15  1  0
 15 16  1  0
 16 17  1  0
 17 18  2  0
 18 19  1  0
 19 20  1  0
 19 21  2  0
 21 22  1  0
 22 23  1  0
 22 24  2  0
 24 25  1  0
 24 26  1  0
 26 27  1  0
 27 28  2  0
 15 29  1  0
 29 30  1  0
  8 31  2  0
 31 32  1  0
 31  2  1  0
 30 12  1  0
 28 17  1  0
 27 21  1  0
  1 33  1  0
  1 34  1  0
  1 35  1  0
  3 36  1  0
  5 37  1  0
  5 38  1  0
  5 39  1  0
  7 40  1  0
  7 41  1  0
  7 42  1  0
 13 43  1  0
 13 44  1  0
 14 45  1  0
 14 46  1  0
 16 47  1  0
 16 48  1  0
 20 49  1  0
 20 50  1  0
 23 51  1  0
 23 52  1  0
 23 53  1  0
 25 54  1  0
 25 55  1  0
 25 56  1  0
 29 57  1  0
 29 58  1  0
 30 59  1  0
 30 60  1  0
 32 61  1  0
 32 62  1  0
 32 63  1  0
M  END
>  <vina_affinity>  (1) 
-8.714

$$$$
dec_C16857002
     RDKit          3D

 48 49  0  0  0  0  0  0  0  0999 V2000
   -5.4340   19.9260   16.0470 C   0  0  0  0  0  0  0  0  0  0  0  0
   -4.1190   20.1500   16.7950 C   0  0  0  0  0  0  0  0  0  0  0  0
   -2.9460   19.9280   15.8340 C   0  0  0  0  0  0  0  0  0  0  0  0
   -4.0010   21.5500   17.4260 C   0  0  0  0  0  0  0  0  0  0  0  0
   -5.2130   22.7570   16.7790 S   0  0  0  0  0  0  0  0  0  0  0  0
   -4.1980   23.7510   15.7140 C   0  0  0  0  0  0  0  0  0  0  0  0
   -4.8380   24.6770   14.9880 N   0  0  0  0  0  0  0  0  0  0  0  0
   -4.0580   25.4370   14.2080 C   0  0  0  0  0  0  0  0  0  0  0  0
   -4.7770   26.3180   13.4610 O   0  0  0  0  0  0  0  0  0  0  0  0
   -2.6850   25.3510   14.0890 C   0  0  0  0  0  0  0  0  0  0  0  0
   -1.8970   26.2540   13.2480 C   0  0  0  0  0  0  0  0  0  0  0  0
   -1.5670   26.0060   11.9350 C   0  0  0  0  0  0  0  0  0  0  0  0
   -1.8950   24.8190   11.3480 O   0  0  0  0  0  0  0  0  0  0  0  0
   -0.8820   26.8130   11.1140 N   0  0  0  0  0  0  0  0  0  0  0  0
   -0.4780   27.9710   11.6580 C   0  0  0  0  0  0  0  0  0  0  0  0
    0.4420   29.1010   10.6510 S   0  0  0  0  0  0  0  0  0  0  0  0
   -0.8510   29.6360    9.4800 C   0  0  0  0  0  0  0  0  0  0  0  0
   -1.8060   30.7040   10.0450 C   0  0  0  0  0  0  0  0  0  0  0  0
   -1.4020   32.0800    9.5060 C   0  0  0  0  0  0  0  0  0  0  0  0
   -3.2760   30.4430    9.7110 C   0  0  0  0  0  0  0  0  0  0  0  0
   -0.6890   28.3320   12.9310 N   0  0  0  0  0  0  0  0  0  0  0  0
   -1.3880   27.4620   13.6750 C   0  0  0  0  0  0  0  0  0  0  0  0
   -1.5200   27.8700   14.9650 O   0  0  0  0  0  0  0  0  0  0  0  0
   -2.1660   24.3270   14.8580 C   0  0  0  0  0  0  0  0  0  0  0  0
   -0.8360   24.0140   14.8390 O   0  0  0  0  0  0  0  0  0  0  0  0
   -2.8790   23.5380   15.6780 N   0  0  0  0  0  0  0  0  0  0  0  0
   -6.2493   19.7871   16.7722 H   0  0  0  0  0  0  0  0  0  0  0  0
   -5.6501   20.8003   15.4154 H   0  0  0  0  0  0  0  0  0  0  0  0
   -5.3484   19.0295   15.4154 H   0  0  0  0  0  0  0  0  0  0  0  0
   -4.0981   19.4261   17.6230 H   0  0  0  0  0  0  0  0  0  0  0  0
   -2.0264   19.7540   16.4119 H   0  0  0  0  0  0  0  0  0  0  0  0
   -3.1519   19.0529   15.2001 H   0  0  0  0  0  0  0  0  0  0  0  0
   -2.8178   20.8178   15.2001 H   0  0  0  0  0  0  0  0  0  0  0  0
   -4.1521   21.4549   18.5114 H   0  0  0  0  0  0  0  0  0  0  0  0
   -3.0015   21.9324   17.1715 H   0  0  0  0  0  0  0  0  0  0  0  0
   -5.3760   25.7080   12.9910 H   0  0  0  0  0  0  0  0  0  0  0  0
   -1.6960   25.0190   10.4130 H   0  0  0  0  0  0  0  0  0  0  0  0
   -0.3592   30.0495    8.5872 H   0  0  0  0  0  0  0  0  0  0  0  0
   -1.4626   28.7498    9.2551 H   0  0  0  0  0  0  0  0  0  0  0  0
   -1.7159   30.6641   11.1406 H   0  0  0  0  0  0  0  0  0  0  0  0
   -1.2025   32.7594   10.3478 H   0  0  0  0  0  0  0  0  0  0  0  0
   -0.4949   31.9813    8.8916 H   0  0  0  0  0  0  0  0  0  0  0  0
   -2.2185   32.4873    8.8916 H   0  0  0  0  0  0  0  0  0  0  0  0
   -3.8512   30.3409   10.6430 H   0  0  0  0  0  0  0  0  0  0  0  0
   -3.6739   31.2846    9.1249 H   0  0  0  0  0  0  0  0  0  0  0  0
   -3.3598   29.5159    9.1249 H   0  0  0  0  0  0  0  0  0  0  0  0
   -1.1400   27.1110   15.4430 H   0  0  0  0  0  0  0  0  0  0  0  0
   -0.5950   23.7980   15.7580 H   0  0  0  0  0  0  0  0  0  0  0  0
  1  2  1  0
  2  3  1  0
  2  4  1  0
  4  5  1  0
  5  6  1  0
  6  7  2  0
  7  8  1  0
  8  9  1  0
  8 10  2  0
 10 11  1  0
 11 12  2  0
 12 13  1  0
 12 14  1  0
 14 15  2  0
 15 16  1  0
 16 17  1  0
 17 18  1  0
 18 19  1  0
 18 20  1  0
 15 21  1  0
 21 22  2  0
 22 23  1  0
 10 24  1  0
 24 25  1  0
 24 26  2  0
 26  6  1  0
 22 11  1  0
  1 27  1  0
  1 28  1  0
  1 29  1  0
  2 30  1  0
  3 31  1  0
  3 32  1  0
  3 33  1  0
  4 34  1  0
  4 35  1  0
  9 36  1  0
 13 37  1  0
 17 38  1  0
 17 39  1  0
 18 40  1  0
 19 41  1  0
 19 42  1  0
 19 43  1  0
 20 44  1  0
 20 45  1  0
 20 46  1  0
 23 47  1  0
 25 48  1  0
M  END
>  <vina_affinity>  (1) 
-7.059

$$$$
dec_C31818585
     RDKit          3D

 35 37  0  0  0  0  0  0  0  0999 V2000
   -4.5340   22.7700   16.5450 N   0  0  0  0  0  0  0  0  0  0  0  0
   -4.0750   23.7920   15.7130 C   0  0  0  0  0  0  0  0  0  0  0  0
   -4.9660   24.5640   15.0010 C   0  0  0  0  0  0  0  0  0  0  0  0
   -4.4300   25.5620   14.2160 C   0  0  0  0  0  0  0  0  0  0  0  0
   -5.2680   26.3950   13.4630 N   0  0  0  0  0  0  0  0  0  0  0  0
   -3.1160   25.7800   14.1430 N   0  0  0  0  0  0  0  0  0  0  0  0
   -2.3330   24.9810   14.8800 C   0  0  0  0  0  0  0  0  0  0  0  0
   -0.5820   25.2230   14.7370 S   0  0  0  0  0  0  0  0  0  0  0  0
   -0.3220   24.2820   13.2050 C   0  0  0  0  0  0  0  0  0  0  0  0
   -0.6850   25.0400   11.9840 C   0  0  0  0  0  0  0  0  0  0  0  0
   -1.1420   24.5990   10.8300 N   0  0  0  0  0  0  0  0  0  0  0  0
   -1.3410   25.7130   10.0410 N   0  0  0  0  0  0  0  0  0  0  0  0
   -0.9920   26.7570   10.7670 C   0  0  0  0  0  0  0  0  0  0  0  0
   -1.0120   28.1770   10.4370 C   0  0  0  0  0  0  0  0  0  0  0  0
    0.0730   28.8060    9.8040 C   0  0  0  0  0  0  0  0  0  0  0  0
    0.0350   30.1720    9.5000 C   0  0  0  0  0  0  0  0  0  0  0  0
   -1.1000   30.9220    9.8300 C   0  0  0  0  0  0  0  0  0  0  0  0
   -1.1460   32.3550    9.5130 N   0  0  0  0  0  0  0  0  0  0  0  0
   -0.4310   32.7640    8.5870 O   0  0  0  0  0  0  0  0  0  0  0  0
   -1.8950   33.0720   10.1920 O   0  0  0  0  0  0  0  0  0  0  0  0
   -2.1910   30.3160   10.4630 C   0  0  0  0  0  0  0  0  0  0  0  0
   -2.1410   28.9490   10.7630 C   0  0  0  0  0  0  0  0  0  0  0  0
   -0.5400   26.4030   12.0110 O   0  0  0  0  0  0  0  0  0  0  0  0
   -2.7580   23.9900   15.6760 N   0  0  0  0  0  0  0  0  0  0  0  0
   -3.7440   22.1640   16.7530 H   0  0  0  0  0  0  0  0  0  0  0  0
   -5.2960   22.2500   16.1200 H   0  0  0  0  0  0  0  0  0  0  0  0
   -6.0512   24.3926   15.0561 H   0  0  0  0  0  0  0  0  0  0  0  0
   -5.7890   27.0090   14.0820 H   0  0  0  0  0  0  0  0  0  0  0  0
   -5.9340   25.8360   12.9390 H   0  0  0  0  0  0  0  0  0  0  0  0
    0.7406   24.0049   13.1412 H   0  0  0  0  0  0  0  0  0  0  0  0
   -0.9778   23.3999   13.2485 H   0  0  0  0  0  0  0  0  0  0  0  0
    0.9648   28.2170    9.5436 H   0  0  0  0  0  0  0  0  0  0  0  0
    0.8915   30.6529    9.0050 H   0  0  0  0  0  0  0  0  0  0  0  0
   -3.0806   30.9085   10.7228 H   0  0  0  0  0  0  0  0  0  0  0  0
   -2.9979   28.4720   11.2612 H   0  0  0  0  0  0  0  0  0  0  0  0
  1  2  1  0
  2  3  2  0
  3  4  1  0
  4  5  1  0
  4  6  2  0
  6  7  1  0
  7  8  1  0
  8  9  1  0
  9 10  1  0
 10 11  2  0
 11 12  1  0
 12 13  2  0
 13 14  1  0
 14 15  2  0
 15 16  1  0
 16 17  2  0
 17 18  1  0
 18 19  2  0
 18 20  1  0
 17 21  1  0
 21 22  2  0
 13 23  1  0
  7 24  2  0
 24  2  1  0
 23 10  1  0
 22 14  1  0
  1 25  1  0
  1 26  1  0
  3 27  1  0
  5 28  1  0
  5 29  1  0
  9 30  1  0
  9 31  1  0
 15 32  1  0
 16 33  1  0
 21 34  1  0
 22 35  1  0
M  CHG  2  18   1  20  -1
M  END
>  <vina_affinity>  (1) 
-7.463

$$$$
dec_C52345033
     RDKit          3D

 42 43  0  0  0  0  0  0  0  0999 V2000
    1.4610   30.6030    7.4610 C   0  0  0  0  0  0  0  0  0  0  0  0
    0.6560   30.3930    8.7430 C   0  0  2  0  0  0  0  0  0  0  0  0
    0.7170   28.9830    9.1290 N   0  0  0  0  0  0  0  0  0  0  0  0
    0.8870   28.6010   10.4430 C   0  0  0  0  0  0  0  0  0  0  0  0
    1.1050   29.3870   11.3560 O   0  0  0  0  0  0  0  0  0  0  0  0
    0.8570   27.1510   10.7440 C   0  0  0  0  0  0  0  0  0  0  0  0
    1.8540   26.3600   10.1510 C   0  0  0  0  0  0  0  0  0  0  0  0
    1.9150   24.9790   10.3740 C   0  0  0  0  0  0  0  0  0  0  0  0
    2.9800   24.2320    9.8660 N   0  0  0  0  0  0  0  0  0  0  0  0
    1.0320   24.4030   11.2940 C   0  0  0  0  0  0  0  0  0  0  0  0
    0.0450   25.1710   11.9140 C   0  0  0  0  0  0  0  0  0  0  0  0
   -0.0320   26.5370   11.6250 C   0  0  0  0  0  0  0  0  0  0  0  0
   -1.0460   27.3020   12.3040 N   0  0  0  0  0  0  0  0  0  0  0  0
   -0.7690   27.7480   13.4220 O   0  0  0  0  0  0  0  0  0  0  0  0
   -2.1320   27.4190   11.7180 O   0  0  0  0  0  0  0  0  0  0  0  0
   -0.8180   30.8800    8.6660 C   0  0  0  0  0  0  0  0  0  0  0  0
   -1.0080   32.3790    8.9880 C   0  0  0  0  0  0  0  0  0  0  0  0
   -1.6540   32.6190   10.3480 C   0  0  0  0  0  0  0  0  0  0  0  0
   -3.0210   31.9430   10.4610 C   0  0  0  0  0  0  0  0  0  0  0  0
   -3.1170   30.6250    9.6930 C   0  0  0  0  0  0  0  0  0  0  0  0
   -1.7500   29.9790    9.5020 C   0  0  0  0  0  0  0  0  0  0  0  0
    2.4959   30.8730    7.7180 H   0  0  0  0  0  0  0  0  0  0  0  0
    1.4600   29.6745    6.8711 H   0  0  0  0  0  0  0  0  0  0  0  0
    1.0065   31.4126    6.8711 H   0  0  0  0  0  0  0  0  0  0  0  0
    1.1240   31.0248    9.5123 H   0  0  0  0  0  0  0  0  0  0  0  0
    0.4850   28.2990    8.4140 H   0  0  0  0  0  0  0  0  0  0  0  0
    2.6018   26.8344    9.4985 H   0  0  0  0  0  0  0  0  0  0  0  0
    3.1240   24.3200    8.8640 H   0  0  0  0  0  0  0  0  0  0  0  0
    3.0160   23.2670   10.1790 H   0  0  0  0  0  0  0  0  0  0  0  0
    1.1166   23.3323   11.5315 H   0  0  0  0  0  0  0  0  0  0  0  0
   -0.6614   24.7087   12.6192 H   0  0  0  0  0  0  0  0  0  0  0  0
   -1.1100   30.7838    7.6098 H   0  0  0  0  0  0  0  0  0  0  0  0
   -0.0225   32.8675    8.9769 H   0  0  0  0  0  0  0  0  0  0  0  0
   -1.6819   32.7965    8.2254 H   0  0  0  0  0  0  0  0  0  0  0  0
   -0.9935   32.2173   11.1306 H   0  0  0  0  0  0  0  0  0  0  0  0
   -1.8002   33.7026   10.4678 H   0  0  0  0  0  0  0  0  0  0  0  0
   -3.2228   31.7419   11.5235 H   0  0  0  0  0  0  0  0  0  0  0  0
   -3.7578   32.6291   10.0179 H   0  0  0  0  0  0  0  0  0  0  0  0
   -3.7625   29.9328   10.2535 H   0  0  0  0  0  0  0  0  0  0  0  0
   -3.5354   30.8391    8.6985 H   0  0  0  0  0  0  0  0  0  0  0  0
   -1.2934   29.8076   10.4880 H   0  0  0  0  0  0  0  0  0  0  0  0
   -1.8865   29.0278    8.9666 H   0  0  0  0  0  0  0  0  0  0  0  0
  1  2  1  0
  2  3  1  0
  3  4  1  0
  4  5  2  0
  4  6  1  0
  6  7  2  0
  7  8  1  0
  8  9  1  0
  8 10  2  0
 10 11  1  0
 11 12  2  0
 12 13  1  0
 13 14  2  0
 13 15  1  0
  2 16  1  0
 16 17  1  0
 17 18  1  0
 18 19  1  0
 19 20  1  0
 20 21  1  0
 12  6  1  0
 21 16  1  0
  1 22  1  0
  1 23  1  0
  1 24  1  0
  2 25  1  1
  3 26  1  0
  7 27  1  0
  9 28  1  0
  9 29  1  0
 10 30  1  0
 11 31  1  0
 16 32  1  0
 17 33  1  0
 17 34  1  0
 18 35  1  0
 18 36  1  0
 19 37  1  0
 19 38  1  0
 20 39  1  0
 20 40  1  0
 21 41  1  0
 21 42  1  0
M  CHG  2  13   1  15  -1
M  END
>  <vina_affinity>  (1) 
-7.622

$$$$
dec_C65181977
     RDKit          3D

 51 54  0  0  0  0  0  0  0  0999 V2000
   -0.8580   25.7670   14.5570 C   0  0  0  0  0  0  0  0  0  0  0  0
   -0.0220   26.3200   13.5370 O   0  0  0  0  0  0  0  0  0  0  0  0
   -0.7120   27.1630   12.6940 C   0  0  0  0  0  0  0  0  0  0  0  0
   -2.0840   26.7800   12.3710 C   0  0  0  0  0  0  0  0  0  0  0  0
   -2.8680   27.5390   11.5860 C   0  0  0  0  0  0  0  0  0  0  0  0
   -2.3330   28.7600   11.0790 C   0  0  0  0  0  0  0  0  0  0  0  0
   -0.9710   29.1950   11.4430 C   0  0  0  0  0  0  0  0  0  0  0  0
   -0.1590   28.3240   12.2980 C   0  0  0  0  0  0  0  0  0  0  0  0
   -0.6620   30.3180   10.9230 N   0  0  0  0  0  0  0  0  0  0  0  0
   -1.7710   30.8070   10.0560 C   0  0  1  0  0  0  0  0  0  0  0  0
   -1.2500   30.9540    8.6150 C   0  0  2  0  0  0  0  0  0  0  0  0
   -0.2210   29.9900    8.2980 N   0  0  0  0  0  0  0  0  0  0  0  0
    0.8430   30.7100    7.8320 C   0  0  0  0  0  0  0  0  0  0  0  0
    2.0570   30.0670    7.2200 C   0  0  0  0  0  0  0  0  0  0  0  0
    3.1530   29.7180    8.2320 C   0  0  0  0  0  0  0  0  0  0  0  0
    3.3660   28.2800    8.4370 N   0  0  0  0  0  0  0  0  0  0  0  0
    2.7620   27.6990    9.6290 C   0  0  0  0  0  0  0  0  0  0  0  0
    4.5000   27.6470    7.9160 C   0  0  0  0  0  0  0  0  0  0  0  0
    5.5780   27.6860    8.5040 O   0  0  0  0  0  0  0  0  0  0  0  0
    4.3810   26.9670    6.6040 C   0  0  0  0  0  0  0  0  0  0  0  0
    4.2750   27.7680    5.4560 C   0  0  0  0  0  0  0  0  0  0  0  0
    4.1200   27.1780    4.2010 C   0  0  0  0  0  0  0  0  0  0  0  0
    4.0580   25.7910    4.0870 C   0  0  0  0  0  0  0  0  0  0  0  0
    4.1540   24.9890    5.2270 C   0  0  0  0  0  0  0  0  0  0  0  0
    4.3120   25.5720    6.4900 C   0  0  0  0  0  0  0  0  0  0  0  0
    4.4810   24.5010    7.8390 Cl  0  0  0  0  0  0  0  0  0  0  0  0
    0.7240   32.0010    7.9790 N   0  0  0  0  0  0  0  0  0  0  0  0
   -0.5850   32.2310    8.5090 O   0  0  0  0  0  0  0  0  0  0  0  0
   -2.7980   29.7170   10.2680 C   0  0  0  0  0  0  0  0  0  0  0  0
   -0.4554   26.0333   15.5454 H   0  0  0  0  0  0  0  0  0  0  0  0
   -1.8763   26.1703   14.4551 H   0  0  0  0  0  0  0  0  0  0  0  0
   -0.8853   24.6721   14.4551 H   0  0  0  0  0  0  0  0  0  0  0  0
   -2.4876   25.8430   12.7822 H   0  0  0  0  0  0  0  0  0  0  0  0
   -3.8940   27.2269   11.3414 H   0  0  0  0  0  0  0  0  0  0  0  0
    0.8592   28.6075   12.6029 H   0  0  0  0  0  0  0  0  0  0  0  0
    0.2650   30.7390   10.9890 H   0  0  0  0  0  0  0  0  0  0  0  0
   -2.1910   31.7989   10.2788 H   0  0  0  0  0  0  0  0  0  0  0  0
   -2.1153   30.8274    7.9477 H   0  0  0  0  0  0  0  0  0  0  0  0
   -0.5230   29.1900    7.7330 H   0  0  0  0  0  0  0  0  0  0  0  0
    1.7418   29.1404    6.7178 H   0  0  0  0  0  0  0  0  0  0  0  0
    2.4887   30.8002    6.5228 H   0  0  0  0  0  0  0  0  0  0  0  0
    4.0976   30.1569    7.8784 H   0  0  0  0  0  0  0  0  0  0  0  0
    2.8217   30.1231    9.1995 H   0  0  0  0  0  0  0  0  0  0  0  0
    3.2214   28.1409   10.5254 H   0  0  0  0  0  0  0  0  0  0  0  0
    1.6817   27.9060    9.6307 H   0  0  0  0  0  0  0  0  0  0  0  0
    2.9269   26.6114    9.6307 H   0  0  0  0  0  0  0  0  0  0  0  0
    4.3142   28.8636    5.5460 H   0  0  0  0  0  0  0  0  0  0  0  0
    4.0468   27.8078    3.3021 H   0  0  0  0  0  0  0  0  0  0  0  0
    3.9332   25.3264    3.0978 H   0  0  0  0  0  0  0  0  0  0  0  0
    4.1052   23.8942    5.1317 H   0  0  0  0  0  0  0  0  0  0  0  0
   -3.7996   29.7118    9.8133 H   0  0  0  0  0  0  0  0  0  0  0  0
  1  2  1  0
  2  3  1  0
  3  4  1  0
  4  5  2  0
  5  6  1  0
  6  7  1  0
  7  8  1  0
  7  9  2  0
  9 10  1  0
 10 11  1  0
 11 12  1  0
 12 13  1  0
 13 14  1  0
 14 15  1  0
 15 16  1  0
 16 17  1  0
 16 18  1  0
 18 19  2  0
 18 20  1  0
 20 21  2  0
 21 22  1  0
 22 23  2  0
 23 24  1  0
 24 25  2  0
 25 26  1  0
 13 27  2  0
 27 28  1  0
 10 29  1  0
  8  3  2  0
 28 11  1  0
 29  6  2  0
 25 20  1  0
  1 30  1  0
  1 31  1  0
  1 32  1  0
  4 33  1  0
  5 34  1  0
  8 35  1  0
  9 36  1  0
 10 37  1  1
 11 38  1  6
 12 39  1  0
 14 40  1  0
 14 41  1  0
 15 42  1  0
 15 43  1  0
 17 44  1  0
 17 45  1  0
 17 46  1  0
 21 47  1  0
 22 48  1  0
 23 49  1  0
 24 50  1  0
 29 51  1  0
M  CHG  1   9   1
M  END
>  <vina_affinity>  (1) 
-8.547

$$$$
dec_C67099480
     RDKit          3D

 38 41  0  0  0  0  0  0  0  0999 V2000
   -0.8460   22.3840   15.1140 Cl  0  0  0  0  0  0  0  0  0  0  0  0
   -2.4550   22.9450   15.4230 C   0  0  0  0  0  0  0  0  0  0  0  0
   -3.3070   22.0450   16.0810 C   0  0  0  0  0  0  0  0  0  0  0  0
   -4.6060   22.4170   16.4210 C   0  0  0  0  0  0  0  0  0  0  0  0
   -5.0600   23.6930   16.1130 C   0  0  0  0  0  0  0  0  0  0  0  0
   -4.2160   24.5920   15.4570 C   0  0  0  0  0  0  0  0  0  0  0  0
   -2.9030   24.2330   15.0880 C   0  0  0  0  0  0  0  0  0  0  0  0
   -2.1040   25.2390   14.3960 C   0  0  0  0  0  0  0  0  0  0  0  0
   -2.1720   25.6330   13.1410 N   0  0  0  0  0  0  0  0  0  0  0  0
   -1.1480   26.5470   13.0630 C   0  0  0  0  0  0  0  0  0  0  0  0
   -0.8330   27.2990   11.8150 C   0  0  0  0  0  0  0  0  0  0  0  0
   -2.0280   27.7630   11.1760 O   0  0  0  0  0  0  0  0  0  0  0  0
   -1.9390   28.9010   10.4240 C   0  0  0  0  0  0  0  0  0  0  0  0
   -3.0960   29.6820   10.4230 C   0  0  0  0  0  0  0  0  0  0  0  0
   -3.1500   30.8700    9.6960 C   0  0  0  0  0  0  0  0  0  0  0  0
   -2.0400   31.2850    8.9610 C   0  0  0  0  0  0  0  0  0  0  0  0
   -0.8680   30.5160    8.9490 C   0  0  0  0  0  0  0  0  0  0  0  0
    0.2970   30.9430    8.1920 C   0  0  0  0  0  0  0  0  0  0  0  0
    0.6900   32.2250    7.7400 C   0  0  0  0  0  0  0  0  0  0  0  0
    1.8550   32.2090    7.0860 N   0  0  0  0  0  0  0  0  0  0  0  0
    2.2120   30.9160    7.1140 N   0  0  0  0  0  0  0  0  0  0  0  0
    1.3160   30.1180    7.7660 C   0  0  0  0  0  0  0  0  0  0  0  0
   -0.8270   29.3220    9.6890 C   0  0  0  0  0  0  0  0  0  0  0  0
   -0.4320   26.6840   14.1880 N   0  0  0  0  0  0  0  0  0  0  0  0
   -1.0650   25.8100   15.0740 O   0  0  0  0  0  0  0  0  0  0  0  0
   -2.9460   21.0364   16.3307 H   0  0  0  0  0  0  0  0  0  0  0  0
   -5.2693   21.7030   16.9313 H   0  0  0  0  0  0  0  0  0  0  0  0
   -6.0821   23.9949   16.3851 H   0  0  0  0  0  0  0  0  0  0  0  0
   -4.5834   25.6021   15.2231 H   0  0  0  0  0  0  0  0  0  0  0  0
   -0.2013   28.1637   12.0666 H   0  0  0  0  0  0  0  0  0  0  0  0
   -0.3074   26.6237   11.1239 H   0  0  0  0  0  0  0  0  0  0  0  0
   -3.9733   29.3568   11.0014 H   0  0  0  0  0  0  0  0  0  0  0  0
   -4.0661   31.4788    9.7020 H   0  0  0  0  0  0  0  0  0  0  0  0
   -2.0844   32.2221    8.3867 H   0  0  0  0  0  0  0  0  0  0  0  0
    0.0994   33.1375    7.9090 H   0  0  0  0  0  0  0  0  0  0  0  0
    3.0850   30.6490    6.6710 H   0  0  0  0  0  0  0  0  0  0  0  0
    1.3923   29.0316    7.9207 H   0  0  0  0  0  0  0  0  0  0  0  0
    0.0889   28.7129    9.6899 H   0  0  0  0  0  0  0  0  0  0  0  0
  1  2  1  0
  2  3  2  0
  3  4  1  0
  4  5  2  0
  5  6  1  0
  6  7  2  0
  7  8  1  0
  8  9  2  0
  9 10  1  0
 10 11  1  0
 11 12  1  0
 12 13  1  0
 13 14  2  0
 14 15  1  0
 15 16  2  0
 16 17  1  0
 17 18  1  0
 18 19  1  0
 19 20  2  0
 20 21  1  0
 21 22  1  0
 17 23  2  0
 10 24  2  0
 24 25  1  0
  7  2  1  0
 25  8  1  0
 23 13  1  0
 22 18  2  0
  3 26  1  0
  4 27  1  0
  5 28  1  0
  6 29  1  0
 11 30  1  0
 11 31  1  0
 14 32  1  0
 15 33  1  0
 16 34  1  0
 19 35  1  0
 21 36  1  0
 22 37  1  0
 23 38  1  0
M  END
>  <vina_affinity>  (1) 
-8.514

$$$$
dec_C17029415
     RDKit          3D

 46 49  0  0  0  0  0  0  0  0999 V2000
    2.6980   27.4190   10.4610 O   0  0  0  0  0  0  0  0  0  0  0  0
    1.7560   28.0540    9.9970 C   0  0  0  0  0  0  0  0  0  0  0  0
    1.9270   29.0000    9.0350 N   0  0  0  0  0  0  0  0  0  0  0  0
    0.9570   29.8220    8.5250 C   0  0  0  0  0  0  0  0  0  0  0  0
    1.4700   30.9500    7.3930 S   0  0  0  0  0  0  0  0  0  0  0  0
   -0.3350   29.6320    9.0240 N   0  0  0  0  0  0  0  0  0  0  0  0
   -1.4530   30.4920    8.5740 C   0  0  0  0  0  0  0  0  0  0  0  0
   -1.7170   31.5970    9.5410 C   0  0  0  0  0  0  0  0  0  0  0  0
   -1.1420   32.8400    9.7250 C   0  0  0  0  0  0  0  0  0  0  0  0
   -1.8270   33.4430   10.8080 C   0  0  0  0  0  0  0  0  0  0  0  0
   -2.7780   32.5360   11.2110 C   0  0  0  0  0  0  0  0  0  0  0  0
   -2.7220   31.4170   10.4480 O   0  0  0  0  0  0  0  0  0  0  0  0
   -0.6130   28.6380    9.9700 C   0  0  0  0  0  0  0  0  0  0  0  0
    0.3740   27.8560   10.4500 C   0  0  0  0  0  0  0  0  0  0  0  0
    0.1360   26.7320   11.4250 C   0  0  0  0  0  0  0  0  0  0  0  0
   -1.2660   26.2740   11.4610 N   0  0  0  0  0  0  0  0  0  0  0  0
   -1.5060   25.2470   12.4870 C   0  0  0  0  0  0  0  0  0  0  0  0
   -0.5150   24.0660   12.5060 C   0  0  0  0  0  0  0  0  0  0  0  0
   -0.8850   23.0470   13.5840 C   0  0  0  0  0  0  0  0  0  0  0  0
   -0.9790   23.6950   14.9610 C   0  0  0  0  0  0  0  0  0  0  0  0
   -1.9430   24.8770   14.9610 C   0  0  0  0  0  0  0  0  0  0  0  0
   -1.5820   25.8990   13.8830 C   0  0  0  0  0  0  0  0  0  0  0  0
   -2.1290   27.4440   11.4990 C   0  0  0  0  0  0  0  0  0  0  0  0
   -1.9090   28.4270   10.4450 N   0  0  0  0  0  0  0  0  0  0  0  0
    2.8730   29.1400    8.7100 H   0  0  0  0  0  0  0  0  0  0  0  0
   -1.1985   30.9263    7.5959 H   0  0  0  0  0  0  0  0  0  0  0  0
   -2.3586   29.8716    8.5036 H   0  0  0  0  0  0  0  0  0  0  0  0
   -0.3152   33.2753    9.1446 H   0  0  0  0  0  0  0  0  0  0  0  0
   -1.6365   34.4367   11.2396 H   0  0  0  0  0  0  0  0  0  0  0  0
   -3.4859   32.6960   12.0376 H   0  0  0  0  0  0  0  0  0  0  0  0
    0.7732   25.8820   11.1394 H   0  0  0  0  0  0  0  0  0  0  0  0
    0.3781   27.1151   12.4273 H   0  0  0  0  0  0  0  0  0  0  0  0
   -2.4692   24.7955   12.2070 H   0  0  0  0  0  0  0  0  0  0  0  0
   -0.5297   23.5702   11.5242 H   0  0  0  0  0  0  0  0  0  0  0  0
    0.4881   24.4584   12.7291 H   0  0  0  0  0  0  0  0  0  0  0  0
   -1.8580   22.5994   13.3331 H   0  0  0  0  0  0  0  0  0  0  0  0
   -0.0967   22.2806   13.6177 H   0  0  0  0  0  0  0  0  0  0  0  0
   -1.3328   22.9459   15.6846 H   0  0  0  0  0  0  0  0  0  0  0  0
    0.0196   24.0656   15.2356 H   0  0  0  0  0  0  0  0  0  0  0  0
   -2.9618   24.5065   14.7745 H   0  0  0  0  0  0  0  0  0  0  0  0
   -1.8781   25.3733   15.9405 H   0  0  0  0  0  0  0  0  0  0  0  0
   -2.3485   26.6878   13.8676 H   0  0  0  0  0  0  0  0  0  0  0  0
   -0.5933   26.3176   14.1222 H   0  0  0  0  0  0  0  0  0  0  0  0
   -3.1706   27.0980   11.4262 H   0  0  0  0  0  0  0  0  0  0  0  0
   -1.8945   27.9587   12.4424 H   0  0  0  0  0  0  0  0  0  0  0  0
   -2.5190   28.2330    9.6530 H   0  0  0  0  0  0  0  0  0  0  0  0
  1  2  2  0
  2  3  1  0
  3  4  1  0
  4  5  2  0
  4  6  1  0
  6  7  1  0
  7  8  1  0
  8  9  2  0
  9 10  1  0
 10 11  2  0
 11 12  1  0
  6 13  1  0
 13 14  2  0
 14 15  1  0
 15 16  1  0
 16 17  1  0
 17 18  1  0
 18 19  1  0
 19 20  1  0
 20 21  1  0
 21 22  1  0
 16 23  1  0
 23 24  1  0
 14  2  1  0
 22 17  1  0
 12  8  1  0
 24 13  1  0
  3 25  1  0
  7 26  1  0
  7 27  1  0
  9 28  1  0
 10 29  1  0
 11 30  1  0
 15 31  1  0
 15 32  1  0
 17 33  1  0
 18 34  1  0
 18 35  1  0
 19 36  1  0
 19 37  1  0
 20 38  1  0
 20 39  1  0
 21 40  1  0
 21 41  1  0
 22 42  1  0
 22 43  1  0
 23 44  1  0
 23 45  1  0
 24 46  1  0
M  END
>  <vina_affinity>  (1) 
-8.019

$$$$
dec_C63350638
     RDKit          3D

 46 50  0  0  0  0  0  0  0  0999 V2000
    0.2690   25.0660   10.7010 O   0  0  0  0  0  0  0  0  0  0  0  0
   -0.1980   25.0480   11.8480 C   0  0  0  0  0  0  0  0  0  0  0  0
   -0.8430   26.3060   12.3600 C   0  0  0  0  0  0  0  0  0  0  0  0
   -1.0790   27.3920   11.3150 C   0  0  1  0  0  0  0  0  0  0  0  0
   -2.4400   28.0020   11.4570 N   0  0  0  0  0  0  0  0  0  0  0  0
   -2.6380   29.3180   10.8370 C   0  0  0  0  0  0  0  0  0  0  0  0
   -1.7050   29.7010    9.6680 C   0  0  0  0  0  0  0  0  0  0  0  0
   -0.2920   29.3180    9.9580 C   0  0  0  0  0  0  0  0  0  0  0  0
    0.8020   29.3710    9.1850 C   0  0  0  0  0  0  0  0  0  0  0  0
    1.1070   29.8960    7.8930 C   0  0  0  0  0  0  0  0  0  0  0  0
    2.3390   29.6930    7.3970 C   0  0  0  0  0  0  0  0  0  0  0  0
    3.3550   28.9470    8.1310 C   0  0  0  0  0  0  0  0  0  0  0  0
    3.1380   28.3900    9.3360 C   0  0  0  0  0  0  0  0  0  0  0  0
    1.8040   28.5680    9.9210 C   0  0  0  0  0  0  0  0  0  0  0  0
    1.3340   28.1000   11.0050 N   0  0  0  0  0  0  0  0  0  0  0  0
   -0.0440   28.5370   11.2370 C   0  0  2  0  0  0  0  0  0  0  0  0
   -1.0340   26.4150   13.6880 C   0  0  0  0  0  0  0  0  0  0  0  0
   -1.4120   27.3470   14.4360 O   0  0  0  0  0  0  0  0  0  0  0  0
   -0.8000   25.3420   14.4770 N   0  0  0  0  0  0  0  0  0  0  0  0
   -0.4340   24.0840   14.0760 C   0  0  0  0  0  0  0  0  0  0  0  0
   -0.5020   22.8890   15.2630 S   0  0  0  0  0  0  0  0  0  0  0  0
   -0.1070   23.9560   12.7200 N   0  0  0  0  0  0  0  0  0  0  0  0
    0.4320   22.7380   12.1720 C   0  0  0  0  0  0  0  0  0  0  0  0
    1.8130   22.4840   12.2500 C   0  0  0  0  0  0  0  0  0  0  0  0
    2.3550   21.3010   11.7380 C   0  0  0  0  0  0  0  0  0  0  0  0
    1.5160   20.3620   11.1560 C   0  0  0  0  0  0  0  0  0  0  0  0
    2.0340   19.2270   10.6670 F   0  0  0  0  0  0  0  0  0  0  0  0
    0.1470   20.5780   11.0800 C   0  0  0  0  0  0  0  0  0  0  0  0
   -0.3950   21.7610   11.5920 C   0  0  0  0  0  0  0  0  0  0  0  0
   -0.9708   26.8302   10.3755 H   0  0  0  0  0  0  0  0  0  0  0  0
   -3.1200   27.3150   11.1120 H   0  0  0  0  0  0  0  0  0  0  0  0
   -3.6707   29.3529   10.4598 H   0  0  0  0  0  0  0  0  0  0  0  0
   -2.4038   30.0413   11.6320 H   0  0  0  0  0  0  0  0  0  0  0  0
   -2.0382   29.1810    8.7577 H   0  0  0  0  0  0  0  0  0  0  0  0
   -1.7492   30.7914    9.5297 H   0  0  0  0  0  0  0  0  0  0  0  0
    0.3523   30.4527    7.3180 H   0  0  0  0  0  0  0  0  0  0  0  0
    2.5892   30.1019    6.4070 H   0  0  0  0  0  0  0  0  0  0  0  0
    4.3499   28.8341    7.6757 H   0  0  0  0  0  0  0  0  0  0  0  0
    3.9248   27.8267    9.8591 H   0  0  0  0  0  0  0  0  0  0  0  0
    1.7940   27.5010   11.7190 H   0  0  0  0  0  0  0  0  0  0  0  0
   -0.1531   29.0666   12.1949 H   0  0  0  0  0  0  0  0  0  0  0  0
   -1.0460   25.4810   15.4510 H   0  0  0  0  0  0  0  0  0  0  0  0
    2.4756   23.2257   12.7200 H   0  0  0  0  0  0  0  0  0  0  0  0
    3.4378   21.1165   11.7963 H   0  0  0  0  0  0  0  0  0  0  0  0
   -0.5076   19.8232   10.6198 H   0  0  0  0  0  0  0  0  0  0  0  0
   -1.4809   21.9287   11.5402 H   0  0  0  0  0  0  0  0  0  0  0  0
  1  2  2  0
  2  3  1  0
  3  4  1  0
  4  5  1  0
  5  6  1  0
  6  7  1  0
  7  8  1  0
  8  9  2  0
  9 10  1  0
 10 11  2  0
 11 12  1  0
 12 13  2  0
 13 14  1  0
 14 15  2  0
 15 16  1  0
  3 17  2  0
 17 18  1  0
 17 19  1  0
 19 20  1  0
 20 21  2  0
 20 22  1  0
 22 23  1  0
 23 24  2  0
 24 25  1  0
 25 26  2  0
 26 27  1  0
 26 28  1  0
 28 29  2  0
 22  2  1  0
 29 23  1  0
 16  4  1  0
 16  8  1  0
 14  9  1  0
  4 30  1  6
  5 31  1  0
  6 32  1  0
  6 33  1  0
  7 34  1  0
  7 35  1  0
 10 36  1  0
 11 37  1  0
 12 38  1  0
 13 39  1  0
 15 40  1  0
 16 41  1  1
 19 42  1  0
 24 43  1  0
 25 44  1  0
 28 45  1  0
 29 46  1  0
M  CHG  2  15   1  18  -1
M  END
>  <vina_affinity>  (1) 
-8.900

$$$$
dec_C32778729
     RDKit          3D

 48 50  0  0  0  0  0  0  0  0999 V2000
   -4.7860   25.1930   14.6060 C   0  0  0  0  0  0  0  0  0  0  0  0
   -3.4300   24.8790   14.2230 N   0  0  0  0  0  0  0  0  0  0  0  0
   -2.7280   23.9440   14.9650 C   0  0  0  0  0  0  0  0  0  0  0  0
   -3.2260   23.3070   15.8810 O   0  0  0  0  0  0  0  0  0  0  0  0
   -1.4480   23.8100   14.4800 N   0  0  0  0  0  0  0  0  0  0  0  0
   -0.5350   22.9700   15.0870 C   0  0  0  0  0  0  0  0  0  0  0  0
   -0.3200   22.9410   16.2940 O   0  0  0  0  0  0  0  0  0  0  0  0
    0.3570   22.2530   14.0880 C   0  0  0  0  0  0  0  0  0  0  0  0
   -0.3650   21.9150   12.7880 C   0  0  0  0  0  0  0  0  0  0  0  0
    0.3590   22.8130   11.3630 S   0  0  0  0  0  0  0  0  0  0  0  0
    1.1030   24.2810   12.1870 C   0  0  1  0  0  0  0  0  0  0  0  0
    2.6070   24.3630   11.9620 C   0  0  0  0  0  0  0  0  0  0  0  0
    0.3430   25.5410   11.7730 C   0  0  0  0  0  0  0  0  0  0  0  0
   -0.9440   25.6340   11.9150 N   0  0  0  0  0  0  0  0  0  0  0  0
   -1.4800   26.8130   11.5000 C   0  0  0  0  0  0  0  0  0  0  0  0
   -3.1560   27.1010   11.6130 S   0  0  0  0  0  0  0  0  0  0  0  0
   -2.9920   28.6680   10.9500 C   0  0  0  0  0  0  0  0  0  0  0  0
   -1.6800   28.9820   10.6430 C   0  0  0  0  0  0  0  0  0  0  0  0
   -1.3530   30.2770   10.0630 C   0  0  0  0  0  0  0  0  0  0  0  0
   -1.8230   31.4580   10.6540 C   0  0  0  0  0  0  0  0  0  0  0  0
   -1.5200   32.6980   10.0870 C   0  0  0  0  0  0  0  0  0  0  0  0
   -0.7490   32.7660    8.9290 C   0  0  0  0  0  0  0  0  0  0  0  0
   -0.2770   31.5960    8.3360 C   0  0  0  0  0  0  0  0  0  0  0  0
   -0.5790   30.3540    8.9000 C   0  0  0  0  0  0  0  0  0  0  0  0
   -0.8040   27.8910   10.9640 C   0  0  0  0  0  0  0  0  0  0  0  0
    0.6350   27.7670   10.8300 C   0  0  0  0  0  0  0  0  0  0  0  0
    1.3800   28.6400   10.4010 O   0  0  0  0  0  0  0  0  0  0  0  0
    1.1250   26.5490   11.2400 N   0  0  0  0  0  0  0  0  0  0  0  0
   -4.8624   25.2107   15.7032 H   0  0  0  0  0  0  0  0  0  0  0  0
   -5.0618   26.1788   14.2033 H   0  0  0  0  0  0  0  0  0  0  0  0
   -5.4671   24.4288   14.2033 H   0  0  0  0  0  0  0  0  0  0  0  0
   -2.8710   25.6650   13.9220 H   0  0  0  0  0  0  0  0  0  0  0  0
   -1.4260   23.8620   13.4750 H   0  0  0  0  0  0  0  0  0  0  0  0
    1.2154   22.9003   13.8553 H   0  0  0  0  0  0  0  0  0  0  0  0
    0.6737   21.3050   14.5473 H   0  0  0  0  0  0  0  0  0  0  0  0
   -0.2857   20.8330   12.6061 H   0  0  0  0  0  0  0  0  0  0  0  0
   -1.4172   22.2195   12.8888 H   0  0  0  0  0  0  0  0  0  0  0  0
    0.9946   24.1797   13.2769 H   0  0  0  0  0  0  0  0  0  0  0  0
    3.1221   24.3911   12.9335 H   0  0  0  0  0  0  0  0  0  0  0  0
    2.9415   23.4818   11.3950 H   0  0  0  0  0  0  0  0  0  0  0  0
    2.8437   25.2754   11.3950 H   0  0  0  0  0  0  0  0  0  0  0  0
   -3.8375   29.3522   10.7854 H   0  0  0  0  0  0  0  0  0  0  0  0
   -2.4329   31.4080   11.5680 H   0  0  0  0  0  0  0  0  0  0  0  0
   -1.8906   33.6217   10.5554 H   0  0  0  0  0  0  0  0  0  0  0  0
   -0.5125   33.7430    8.4823 H   0  0  0  0  0  0  0  0  0  0  0  0
    0.3340   31.6507    7.4229 H   0  0  0  0  0  0  0  0  0  0  0  0
   -0.2067   29.4329    8.4278 H   0  0  0  0  0  0  0  0  0  0  0  0
    2.1320   26.4560   11.2240 H   0  0  0  0  0  0  0  0  0  0  0  0
  1  2  1  0
  2  3  1  0
  3  4  2  0
  3  5  1  0
  5  6  1  0
  6  7  2  0
  6  8  1  0
  8  9  1  0
  9 10  1  0
 10 11  1  0
 11 12  1  0
 11 13  1  0
 13 14  2  0
 14 15  1  0
 15 16  1  0
 16 17  1  0
 17 18  2  0
 18 19  1  0
 19 20  2  0
 20 21  1  0
 21 22  2  0
 22 23  1  0
 23 24  2  0
 18 25  1  0
 25 26  1  0
 26 27  2  0
 26 28  1  0
 28 13  1  0
 25 15  2  0
 24 19  1  0
  1 29  1  0
  1 30  1  0
  1 31  1  0
  2 32  1  0
  5 33  1  0
  8 34  1  0
  8 35  1  0
  9 36  1  0
  9 37  1  0
 11 38  1  1
 12 39  1  0
 12 40  1  0
 12 41  1  0
 17 42  1  0
 20 43  1  0
 21 44  1  0
 22 45  1  0
 23 46  1  0
 24 47  1  0
 28 48  1  0
M  END
>  <vina_affinity>  (1) 
-8.246

$$$$
dec_C14990825
     RDKit          3D

 69 70  0  0  0  0  0  0  0  0999 V2000
   -3.7140   25.5750   14.2160 C   0  0  0  0  0  0  0  0  0  0  0  0
   -2.7290   25.9210   15.3350 C   0  0  0  0  0  0  0  0  0  0  0  0
   -3.4440   26.7180   16.4260 C   0  0  0  0  0  0  0  0  0  0  0  0
   -1.5200   26.6770   14.7520 C   0  0  0  0  0  0  0  0  0  0  0  0
   -0.5840   25.7870   13.9350 C   0  0  0  0  0  0  0  0  0  0  0  0
    0.0730   26.5390   12.8850 N   0  0  0  0  0  0  0  0  0  0  0  0
   -0.5220   26.7790   11.6710 C   0  0  0  0  0  0  0  0  0  0  0  0
   -1.6290   26.3410   11.3720 O   0  0  0  0  0  0  0  0  0  0  0  0
    0.2630   27.6200   10.7250 C   0  0  0  0  0  0  0  0  0  0  0  0
   -0.3170   28.7260   10.2290 C   0  0  0  0  0  0  0  0  0  0  0  0
    0.2820   29.6140    9.3420 N   0  0  0  0  0  0  0  0  0  0  0  0
   -0.4570   30.7940    8.8370 C   0  0  0  0  0  0  0  0  0  0  0  0
   -1.6060   31.1960    9.7810 C   0  0  0  0  0  0  0  0  0  0  0  0
   -1.5230   32.6930   10.0880 C   0  0  0  0  0  0  0  0  0  0  0  0
   -2.9780   30.8650    9.1920 C   0  0  0  0  0  0  0  0  0  0  0  0
    1.5790   29.3440    8.9250 C   0  0  0  0  0  0  0  0  0  0  0  0
    2.3050   28.2870    9.3260 C   0  0  0  0  0  0  0  0  0  0  0  0
    3.6870   28.1320    8.7950 C   0  0  0  0  0  0  0  0  0  0  0  0
    4.4310   29.0910    8.5750 O   0  0  0  0  0  0  0  0  0  0  0  0
    4.1190   26.8440    8.5870 N   0  0  0  0  0  0  0  0  0  0  0  0
    5.3160   26.5530    7.8270 C   0  0  0  0  0  0  0  0  0  0  0  0
    5.2080   25.3190    6.9100 C   0  0  1  0  0  0  0  0  0  0  0  0
    4.1050   25.5350    5.8590 C   0  0  0  0  0  0  0  0  0  0  0  0
    4.5210   26.5300    4.7740 C   0  0  0  0  0  0  0  0  0  0  0  0
    5.8560   26.1740    4.1320 C   0  0  0  0  0  0  0  0  0  0  0  0
    6.9050   25.9450    5.1820 N   0  0  2  0  0  0  0  0  0  0  0  0
    8.2440   25.6380    4.5740 C   0  0  0  0  0  0  0  0  0  0  0  0
    6.5020   24.9120    6.1980 C   0  0  0  0  0  0  0  0  0  0  0  0
    1.6580   27.3380   10.2810 C   0  0  0  0  0  0  0  0  0  0  0  0
    2.2780   26.3510   10.6860 O   0  0  0  0  0  0  0  0  0  0  0  0
   -4.6654   25.2408   14.6554 H   0  0  0  0  0  0  0  0  0  0  0  0
   -3.8899   26.4651   13.5942 H   0  0  0  0  0  0  0  0  0  0  0  0
   -3.2946   24.7704   13.5942 H   0  0  0  0  0  0  0  0  0  0  0  0
   -2.3464   24.9999   15.7989 H   0  0  0  0  0  0  0  0  0  0  0  0
   -3.1212   26.3582   17.4141 H   0  0  0  0  0  0  0  0  0  0  0  0
   -3.1941   27.7844   16.3245 H   0  0  0  0  0  0  0  0  0  0  0  0
   -4.5312   26.5849   16.3245 H   0  0  0  0  0  0  0  0  0  0  0  0
   -1.8927   27.4814   14.1009 H   0  0  0  0  0  0  0  0  0  0  0  0
   -0.9393   27.0653   15.6017 H   0  0  0  0  0  0  0  0  0  0  0  0
    0.1796   25.3615   14.6028 H   0  0  0  0  0  0  0  0  0  0  0  0
   -1.1814   24.9893   13.4695 H   0  0  0  0  0  0  0  0  0  0  0  0
    0.9680   26.9770   13.0930 H   0  0  0  0  0  0  0  0  0  0  0  0
   -1.3459   28.9462   10.5496 H   0  0  0  0  0  0  0  0  0  0  0  0
    0.2411   31.6391    8.7457 H   0  0  0  0  0  0  0  0  0  0  0  0
   -0.8917   30.5333    7.8607 H   0  0  0  0  0  0  0  0  0  0  0  0
   -1.4933   30.6140   10.7076 H   0  0  0  0  0  0  0  0  0  0  0  0
   -1.5146   32.8439   11.1776 H   0  0  0  0  0  0  0  0  0  0  0  0
   -0.6006   33.1058    9.6535 H   0  0  0  0  0  0  0  0  0  0  0  0
   -2.3941   33.2052    9.6535 H   0  0  0  0  0  0  0  0  0  0  0  0
   -3.6952   30.6920   10.0079 H   0  0  0  0  0  0  0  0  0  0  0  0
   -3.3234   31.7056    8.5722 H   0  0  0  0  0  0  0  0  0  0  0  0
   -2.9022   29.9594    8.5722 H   0  0  0  0  0  0  0  0  0  0  0  0
    2.0446   30.0449    8.2165 H   0  0  0  0  0  0  0  0  0  0  0  0
    3.4480   26.0850    8.7450 H   0  0  0  0  0  0  0  0  0  0  0  0
    5.5459   27.4274    7.2004 H   0  0  0  0  0  0  0  0  0  0  0  0
    6.1048   26.3292    8.5603 H   0  0  0  0  0  0  0  0  0  0  0  0
    4.9647   24.4888    7.5894 H   0  0  0  0  0  0  0  0  0  0  0  0
    3.8755   24.5697    5.3841 H   0  0  0  0  0  0  0  0  0  0  0  0
    3.2261   25.9490    6.3750 H   0  0  0  0  0  0  0  0  0  0  0  0
    3.7469   26.5430    3.9926 H   0  0  0  0  0  0  0  0  0  0  0  0
    4.6333   27.5148    5.2510 H   0  0  0  0  0  0  0  0  0  0  0  0
    5.7367   25.2580    3.5348 H   0  0  0  0  0  0  0  0  0  0  0  0
    6.1739   27.0089    3.4903 H   0  0  0  0  0  0  0  0  0  0  0  0
    7.0680   26.8250    5.7170 H   0  0  0  0  0  0  0  0  0  0  0  0
    8.9799   25.4693    5.3740 H   0  0  0  0  0  0  0  0  0  0  0  0
    8.1655   24.7345    3.9514 H   0  0  0  0  0  0  0  0  0  0  0  0
    8.5670   26.4854    3.9514 H   0  0  0  0  0  0  0  0  0  0  0  0
    6.3455   23.9491    5.6896 H   0  0  0  0  0  0  0  0  0  0  0  0
    7.3026   24.8260    6.9474 H   0  0  0  0  0  0  0  0  0  0  0  0
  1  2  1  0
  2  3  1  0
  2  4  1  0
  4  5  1  0
  5  6  1  0
  6  7  1  0
  7  8  2  0
  7  9  1  0
  9 10  2  0
 10 11  1  0
 11 12  1  0
 12 13  1  0
 13 14  1  0
 13 15  1  0
 11 16  1  0
 16 17  2  0
 17 18  1  0
 18 19  2  0
 18 20  1  0
 20 21  1  0
 21 22  1  0
 22 23  1  0
 23 24  1  0
 24 25  1  0
 25 26  1  0
 26 27  1  0
 26 28  1  0
 17 29  1  0
 29 30  2  0
 29  9  1  0
 28 22  1  0
  1 31  1  0
  1 32  1  0
  1 33  1  0
  2 34  1  0
  3 35  1  0
  3 36  1  0
  3 37  1  0
  4 38  1  0
  4 39  1  0
  5 40  1  0
  5 41  1  0
  6 42  1  0
 10 43  1  0
 12 44  1  0
 12 45  1  0
 13 46  1  0
 14 47  1  0
 14 48  1  0
 14 49  1  0
 15 50  1  0
 15 51  1  0
 15 52  1  0
 16 53  1  0
 20 54  1  0
 21 55  1  0
 21 56  1  0
 22 57  1  1
 23 58  1  0
 23 59  1  0
 24 60  1  0
 24 61  1  0
 25 62  1  0
 25 63  1  0
 26 64  1  1
 27 65  1  0
 27 66  1  0
 27 67  1  0
 28 68  1  0
 28 69  1  0
M  CHG  1  26   1
M  END
>  <vina_affinity>  (1) 
-8.278

$$$$
dec_C64346553
     RDKit          3D

 39 41  0  0  0  0  0  0  0  0999 V2000
   -1.9610   26.0630   10.9910 O   0  0  0  0  0  0  0  0  0  0  0  0
   -2.3630   26.8310   11.8600 C   0  0  0  0  0  0  0  0  0  0  0  0
   -2.9980   26.2890   13.1460 C   0  0  0  0  0  0  0  0  0  0  0  0
   -2.2860   25.1240   13.6400 N   0  0  0  0  0  0  0  0  0  0  0  0
   -2.4890   24.6600   14.9200 C   0  0  0  0  0  0  0  0  0  0  0  0
   -3.2790   25.2120   15.6840 O   0  0  0  0  0  0  0  0  0  0  0  0
   -1.7630   23.4590   15.2910 C   0  0  0  0  0  0  0  0  0  0  0  0
   -2.3240   22.2150   15.7100 C   0  0  0  0  0  0  0  0  0  0  0  0
   -1.2730   21.3680   15.9640 C   0  0  0  0  0  0  0  0  0  0  0  0
   -0.0950   22.0030   15.7390 O   0  0  0  0  0  0  0  0  0  0  0  0
   -0.3950   23.2650   15.3380 C   0  0  0  0  0  0  0  0  0  0  0  0
   -2.3320   28.2140   11.8260 N   0  0  0  0  0  0  0  0  0  0  0  0
   -1.8290   29.0440   10.8050 C   0  0  0  0  0  0  0  0  0  0  0  0
   -2.5630   30.0610   10.1940 C   0  0  0  0  0  0  0  0  0  0  0  0
   -1.9870   30.8480    9.1910 C   0  0  0  0  0  0  0  0  0  0  0  0
   -0.6740   30.6180    8.7820 C   0  0  0  0  0  0  0  0  0  0  0  0
    0.0660   29.5890    9.3720 C   0  0  0  0  0  0  0  0  0  0  0  0
    1.4740   29.3060    8.9750 C   0  0  0  0  0  0  0  0  0  0  0  0
    2.1470   28.1630    9.6410 C   0  0  0  0  0  0  0  0  0  0  0  0
    3.4050   27.9000    9.2790 C   0  0  0  0  0  0  0  0  0  0  0  0
    4.0760   28.7300    8.2620 C   0  0  0  0  0  0  0  0  0  0  0  0
    5.2250   28.4860    7.9130 O   0  0  0  0  0  0  0  0  0  0  0  0
    3.3380   29.7700    7.7600 N   0  0  0  0  0  0  0  0  0  0  0  0
    2.0500   30.0720    8.0960 N   0  0  0  0  0  0  0  0  0  0  0  0
   -0.5110   28.8150   10.3890 C   0  0  0  0  0  0  0  0  0  0  0  0
   -2.9747   27.0751   13.9151 H   0  0  0  0  0  0  0  0  0  0  0  0
   -4.0331   25.9919   12.9216 H   0  0  0  0  0  0  0  0  0  0  0  0
   -1.8320   24.5310   12.9600 H   0  0  0  0  0  0  0  0  0  0  0  0
   -3.3938   21.9797   15.8103 H   0  0  0  0  0  0  0  0  0  0  0  0
   -1.3719   20.3256   16.3011 H   0  0  0  0  0  0  0  0  0  0  0  0
    0.3517   24.0317   15.0841 H   0  0  0  0  0  0  0  0  0  0  0  0
   -2.7870   28.6890   12.6090 H   0  0  0  0  0  0  0  0  0  0  0  0
   -3.6024   30.2454   10.5032 H   0  0  0  0  0  0  0  0  0  0  0  0
   -2.5730   31.6525    8.7226 H   0  0  0  0  0  0  0  0  0  0  0  0
   -0.2222   31.2437    7.9982 H   0  0  0  0  0  0  0  0  0  0  0  0
    1.6310   27.5579   10.4010 H   0  0  0  0  0  0  0  0  0  0  0  0
    3.9434   27.0599    9.7419 H   0  0  0  0  0  0  0  0  0  0  0  0
    3.7750   30.3590    7.0600 H   0  0  0  0  0  0  0  0  0  0  0  0
    0.0785   28.0182   10.8660 H   0  0  0  0  0  0  0  0  0  0  0  0
  1  2  2  0
  2  3  1  0
  3  4  1  0
  4  5  1  0
  5  6  2  0
  5  7  1  0
  7  8  1  0
  8  9  2  0
  9 10  1  0
 10 11  1  0
  2 12  1  0
 12 13  1  0
 13 14  2  0
 14 15  1  0
 15 16  2  0
 16 17  1  0
 17 18  1  0
 18 19  1  0
 19 20  2  0
 20 21  1  0
 21 22  2  0
 21 23  1  0
 23 24  1  0
 17 25  2  0
 11  7  2  0
 25 13  1  0
 24 18  2  0
  3 26  1  0
  3 27  1  0
  4 28  1  0
  8 29  1  0
  9 30  1  0
 11 31  1  0
 12 32  1  0
 14 33  1  0
 15 34  1  0
 16 35  1  0
 19 36  1  0
 20 37  1  0
 23 38  1  0
 25 39  1  0
M  END
>  <vina_affinity>  (1) 
-8.548

$$$$
dec_C08190753
     RDKit          3D

 48 51  0  0  0  0  0  0  0  0999 V2000
   -3.7330   20.6780   17.2120 C   0  0  0  0  0  0  0  0  0  0  0  0
   -2.6270   20.7480   16.2000 C   0  0  0  0  0  0  0  0  0  0  0  0
   -2.0610   19.5680   15.6940 C   0  0  0  0  0  0  0  0  0  0  0  0
   -1.0270   19.6280   14.7580 C   0  0  0  0  0  0  0  0  0  0  0  0
   -0.3410   18.1710   14.1520 Cl  0  0  0  0  0  0  0  0  0  0  0  0
   -0.5410   20.8570   14.3170 C   0  0  0  0  0  0  0  0  0  0  0  0
   -1.1020   22.0360   14.8040 C   0  0  0  0  0  0  0  0  0  0  0  0
   -2.1570   21.9780   15.7180 C   0  0  0  0  0  0  0  0  0  0  0  0
   -2.6890   23.1460   16.1960 O   0  0  0  0  0  0  0  0  0  0  0  0
   -3.5090   23.7860   15.2130 C   0  0  1  0  0  0  0  0  0  0  0  0
   -4.8570   24.0630   15.8760 C   0  0  0  0  0  0  0  0  0  0  0  0
   -2.9240   25.1200   14.6900 C   0  0  0  0  0  0  0  0  0  0  0  0
   -2.7390   26.0840   15.4270 O   0  0  0  0  0  0  0  0  0  0  0  0
   -2.6460   25.0770   13.3270 N   0  0  0  0  0  0  0  0  0  0  0  0
   -2.1190   26.1110   12.5240 C   0  0  0  0  0  0  0  0  0  0  0  0
   -3.0200   27.0740   12.0530 C   0  0  0  0  0  0  0  0  0  0  0  0
   -2.5810   28.1350   11.2490 C   0  0  0  0  0  0  0  0  0  0  0  0
   -1.2310   28.2570   10.8990 C   0  0  0  0  0  0  0  0  0  0  0  0
   -0.7400   29.3500   10.0640 C   0  0  0  0  0  0  0  0  0  0  0  0
   -1.1290   30.6130   10.0360 N   0  0  0  0  0  0  0  0  0  0  0  0
   -0.3340   31.1800    9.0730 C   0  0  0  0  0  0  0  0  0  0  0  0
   -0.2690   32.4920    8.5860 C   0  0  0  0  0  0  0  0  0  0  0  0
    0.6660   32.7760    7.5780 C   0  0  0  0  0  0  0  0  0  0  0  0
    1.5120   31.7810    7.0710 C   0  0  0  0  0  0  0  0  0  0  0  0
    1.4580   30.4650    7.5500 C   0  0  0  0  0  0  0  0  0  0  0  0
    0.5200   30.2260    8.5470 C   0  0  0  0  0  0  0  0  0  0  0  0
    0.2660   29.0440    9.1770 O   0  0  0  0  0  0  0  0  0  0  0  0
   -0.3360   27.2900   11.3750 C   0  0  0  0  0  0  0  0  0  0  0  0
   -0.7740   26.2280   12.1790 C   0  0  0  0  0  0  0  0  0  0  0  0
   -3.3053   20.7051   18.2251 H   0  0  0  0  0  0  0  0  0  0  0  0
   -4.4089   21.5352   17.0763 H   0  0  0  0  0  0  0  0  0  0  0  0
   -4.2955   19.7425   17.0763 H   0  0  0  0  0  0  0  0  0  0  0  0
   -2.4337   18.5913   16.0364 H   0  0  0  0  0  0  0  0  0  0  0  0
    0.2817   20.8965   13.5878 H   0  0  0  0  0  0  0  0  0  0  0  0
   -0.7151   23.0099   14.4696 H   0  0  0  0  0  0  0  0  0  0  0  0
   -3.5854   23.1213   14.3399 H   0  0  0  0  0  0  0  0  0  0  0  0
   -4.7397   24.0389   16.9695 H   0  0  0  0  0  0  0  0  0  0  0  0
   -5.2202   25.0546   15.5680 H   0  0  0  0  0  0  0  0  0  0  0  0
   -5.5818   23.2950   15.5680 H   0  0  0  0  0  0  0  0  0  0  0  0
   -2.8220   24.2010   12.8520 H   0  0  0  0  0  0  0  0  0  0  0  0
   -4.0850   26.9969   12.3171 H   0  0  0  0  0  0  0  0  0  0  0  0
   -3.3055   28.8803   10.8890 H   0  0  0  0  0  0  0  0  0  0  0  0
   -0.9310   33.2764    8.9817 H   0  0  0  0  0  0  0  0  0  0  0  0
    0.7356   33.7987    7.1789 H   0  0  0  0  0  0  0  0  0  0  0  0
    2.2331   32.0378    6.2811 H   0  0  0  0  0  0  0  0  0  0  0  0
    2.1153   29.6729    7.1620 H   0  0  0  0  0  0  0  0  0  0  0  0
    0.7297   27.3652   11.1132 H   0  0  0  0  0  0  0  0  0  0  0  0
   -0.0507   25.4819   12.5399 H   0  0  0  0  0  0  0  0  0  0  0  0
  1  2  1  0
  2  3  2  0
  3  4  1  0
  4  5  1  0
  4  6  2  0
  6  7  1  0
  7  8  2  0
  8  9  1  0
  9 10  1  0
 10 11  1  0
 10 12  1  0
 12 13  2  0
 12 14  1  0
 14 15  1  0
 15 16  2  0
 16 17  1  0
 17 18  2  0
 18 19  1  0
 19 20  2  0
 20 21  1  0
 21 22  2  0
 22 23  1  0
 23 24  2  0
 24 25  1  0
 25 26  2  0
 26 27  1  0
 18 28  1  0
 28 29  2  0
  8  2  1  0
 29 15  1  0
 27 19  1  0
 26 21  1  0
  1 30  1  0
  1 31  1  0
  1 32  1  0
  3 33  1  0
  6 34  1  0
  7 35  1  0
 10 36  1  6
 11 37  1  0
 11 38  1  0
 11 39  1  0
 14 40  1  0
 16 41  1  0
 17 42  1  0
 22 43  1  0
 23 44  1  0
 24 45  1  0
 25 46  1  0
 28 47  1  0
 29 48  1  0
M  END
>  <vina_affinity>  (1) 
-8.605

$$$$
dec_C50252059
     RDKit          3D

 45 46  0  0  0  0  0  0  0  0999 V2000
   -4.1080   24.9300   15.8950 C   0  0  0  0  0  0  0  0  0  0  0  0
   -3.1590   24.9430   14.8070 N   0  0  0  0  0  0  0  0  0  0  0  0
   -3.0590   25.8680   13.8080 C   0  0  0  0  0  0  0  0  0  0  0  0
   -1.9540   25.4940   13.0730 C   0  0  0  0  0  0  0  0  0  0  0  0
   -1.3060   26.2390   11.6820 S   0  0  0  0  0  0  0  0  0  0  0  0
   -1.5470   25.3050   10.6090 O   0  0  0  0  0  0  0  0  0  0  0  0
    0.0010   26.6940   12.0770 O   0  0  0  0  0  0  0  0  0  0  0  0
   -2.2300   27.6200   11.3890 N   0  0  0  0  0  0  0  0  0  0  0  0
   -1.6770   28.8810   10.7930 C   0  0  0  0  0  0  0  0  0  0  0  0
   -0.7730   29.6310   11.8470 C   0  0  0  0  0  0  0  0  0  0  0  0
   -1.1510   29.4040   13.2680 N   0  0  0  0  0  0  0  0  0  0  0  0
   -2.8430   29.8020   10.3530 C   0  0  0  0  0  0  0  0  0  0  0  0
   -2.5260   31.2650   10.0330 C   0  0  0  0  0  0  0  0  0  0  0  0
   -1.8650   31.5680    8.6900 C   0  0  0  0  0  0  0  0  0  0  0  0
   -0.3210   31.5700    8.7070 C   0  0  0  0  0  0  0  0  0  0  0  0
    0.3190   30.2660    8.2320 C   0  0  0  0  0  0  0  0  0  0  0  0
    0.4960   29.1790    9.2940 C   0  0  0  0  0  0  0  0  0  0  0  0
   -0.7800   28.3880    9.6120 C   0  0  0  0  0  0  0  0  0  0  0  0
   -1.4700   24.3330   13.6890 C   0  0  0  0  0  0  0  0  0  0  0  0
   -2.2580   23.9450   14.6960 N   0  0  0  0  0  0  0  0  0  0  0  0
   -3.5676   24.9374   16.8531 H   0  0  0  0  0  0  0  0  0  0  0  0
   -4.7520   25.8194   15.8304 H   0  0  0  0  0  0  0  0  0  0  0  0
   -4.7274   24.0233   15.8304 H   0  0  0  0  0  0  0  0  0  0  0  0
   -3.7196   26.7288   13.6277 H   0  0  0  0  0  0  0  0  0  0  0  0
   -2.8940   27.7410   12.1620 H   0  0  0  0  0  0  0  0  0  0  0  0
    0.2645   29.2918   11.7107 H   0  0  0  0  0  0  0  0  0  0  0  0
   -0.9066   30.7066   11.6594 H   0  0  0  0  0  0  0  0  0  0  0  0
   -1.0210   30.2440   13.8480 H   0  0  0  0  0  0  0  0  0  0  0  0
   -2.1520   29.1630   13.3260 H   0  0  0  0  0  0  0  0  0  0  0  0
   -0.6380   28.6240   13.6970 H   0  0  0  0  0  0  0  0  0  0  0  0
   -3.2859   29.3587    9.4490 H   0  0  0  0  0  0  0  0  0  0  0  0
   -3.4998   29.8511   11.2340 H   0  0  0  0  0  0  0  0  0  0  0  0
   -3.4740   31.8220   10.0663 H   0  0  0  0  0  0  0  0  0  0  0  0
   -1.7790   31.5598   10.7847 H   0  0  0  0  0  0  0  0  0  0  0  0
   -2.1971   30.8081    7.9673 H   0  0  0  0  0  0  0  0  0  0  0  0
   -2.1703   32.5901    8.4213 H   0  0  0  0  0  0  0  0  0  0  0  0
    0.0289   32.3826    8.0534 H   0  0  0  0  0  0  0  0  0  0  0  0
   -0.0195   31.7027    9.7565 H   0  0  0  0  0  0  0  0  0  0  0  0
   -0.3120   29.8539    7.4308 H   0  0  0  0  0  0  0  0  0  0  0  0
    1.3362   30.5350    7.9111 H   0  0  0  0  0  0  0  0  0  0  0  0
    1.2593   28.4715    8.9379 H   0  0  0  0  0  0  0  0  0  0  0  0
    0.7861   29.6924   10.2226 H   0  0  0  0  0  0  0  0  0  0  0  0
   -1.4022   28.3936    8.7049 H   0  0  0  0  0  0  0  0  0  0  0  0
   -0.4166   27.4022    9.9377 H   0  0  0  0  0  0  0  0  0  0  0  0
   -0.5547   23.8059   13.3819 H   0  0  0  0  0  0  0  0  0  0  0  0
  1  2  1  0
  2  3  1  0
  3  4  2  0
  4  5  1  0
  5  6  2  0
  5  7  2  0
  5  8  1  0
  8  9  1  0
  9 10  1  0
 10 11  1  0
  9 12  1  0
 12 13  1  0
 13 14  1  0
 14 15  1  0
 15 16  1  0
 16 17  1  0
 17 18  1  0
  4 19  1  0
 19 20  2  0
 20  2  1  0
 18  9  1  0
  1 21  1  0
  1 22  1  0
  1 23  1  0
  3 24  1  0
  8 25  1  0
 10 26  1  0
 10 27  1  0
 11 28  1  0
 11 29  1  0
 11 30  1  0
 12 31  1  0
 12 32  1  0
 13 33  1  0
 13 34  1  0
 14 35  1  0
 14 36  1  0
 15 37  1  0
 15 38  1  0
 16 39  1  0
 16 40  1  0
 17 41  1  0
 17 42  1  0
 18 43  1  0
 18 44  1  0
 19 45  1  0
M  CHG  1  11   1
M  END
>  <vina_affinity>  (1) 
-4.780

$$$$
dec_C63526184
     RDKit          3D

 55 59  0  0  0  0  0  0  0  0999 V2000
    4.0630   25.8010    4.1590 C   0  0  0  0  0  0  0  0  0  0  0  0
    4.2360   25.0420    5.3550 O   0  0  0  0  0  0  0  0  0  0  0  0
    5.4930   25.1310    5.9060 C   0  0  0  0  0  0  0  0  0  0  0  0
    6.6190   25.4240    5.1250 C   0  0  0  0  0  0  0  0  0  0  0  0
    7.8580   25.6370    5.7280 C   0  0  0  0  0  0  0  0  0  0  0  0
    7.9750   25.5830    7.1130 C   0  0  0  0  0  0  0  0  0  0  0  0
    6.8550   25.3080    7.9000 C   0  0  0  0  0  0  0  0  0  0  0  0
    5.6010   25.0660    7.3120 C   0  0  0  0  0  0  0  0  0  0  0  0
    4.4580   24.7560    8.1300 N   0  0  0  0  0  0  0  0  0  0  0  0
    3.9980   23.4450    8.1900 C   0  0  0  0  0  0  0  0  0  0  0  0
    4.5340   22.4650    7.6700 O   0  0  0  0  0  0  0  0  0  0  0  0
    2.8940   23.2220    8.9580 N   0  0  0  0  0  0  0  0  0  0  0  0
    2.6930   23.9640   10.0790 C   0  0  0  0  0  0  0  0  0  0  0  0
    2.4800   23.4390   11.1620 O   0  0  0  0  0  0  0  0  0  0  0  0
    2.8310   25.4190    9.8370 C   0  0  0  0  0  0  0  0  0  0  0  0
    2.1080   26.3610   10.5060 C   0  0  0  0  0  0  0  0  0  0  0  0
    1.1100   26.0180   11.6120 C   0  0  0  0  0  0  0  0  0  0  0  0
   -0.0280   27.0420   11.7730 C   0  0  2  0  0  0  0  0  0  0  0  0
   -0.9570   26.6680   12.9300 C   0  0  0  0  0  0  0  0  0  0  0  0
   -2.2760   26.2220   12.7320 C   0  0  0  0  0  0  0  0  0  0  0  0
   -3.0770   25.8440   13.8130 C   0  0  0  0  0  0  0  0  0  0  0  0
   -2.5700   25.8960   15.1070 C   0  0  0  0  0  0  0  0  0  0  0  0
   -1.2630   26.3260   15.3230 C   0  0  0  0  0  0  0  0  0  0  0  0
   -0.4630   26.7070   14.2440 C   0  0  0  0  0  0  0  0  0  0  0  0
   -0.9740   27.4640   10.2480 S   0  0  0  0  0  0  0  0  0  0  0  0
    0.0910   28.6450    9.4260 C   0  0  0  0  0  0  0  0  0  0  0  0
   -0.5510   29.5790    8.5960 C   0  0  0  0  0  0  0  0  0  0  0  0
    0.1840   30.4580    7.8000 C   0  0  0  0  0  0  0  0  0  0  0  0
    1.5720   30.3980    7.8090 C   0  0  0  0  0  0  0  0  0  0  0  0
    2.2210   29.4660    8.6190 C   0  0  0  0  0  0  0  0  0  0  0  0
    1.5000   28.5790    9.4410 C   0  0  0  0  0  0  0  0  0  0  0  0
    2.2530   27.7270   10.2710 N   0  0  0  0  0  0  0  0  0  0  0  0
    3.7790   25.8150    8.7420 C   0  0  0  0  0  0  0  0  0  0  0  0
    3.8790   26.9960    8.3960 O   0  0  0  0  0  0  0  0  0  0  0  0
    3.8254   26.8435    4.4174 H   0  0  0  0  0  0  0  0  0  0  0  0
    4.9908   25.7719    3.5688 H   0  0  0  0  0  0  0  0  0  0  0  0
    3.2394   25.3727    3.5688 H   0  0  0  0  0  0  0  0  0  0  0  0
    6.5249   25.4863    4.0308 H   0  0  0  0  0  0  0  0  0  0  0  0
    8.7424   25.8476    5.1088 H   0  0  0  0  0  0  0  0  0  0  0  0
    8.9513   25.7572    7.5889 H   0  0  0  0  0  0  0  0  0  0  0  0
    6.9551   25.2803    8.9951 H   0  0  0  0  0  0  0  0  0  0  0  0
    2.7590   22.2320    9.1160 H   0  0  0  0  0  0  0  0  0  0  0  0
    0.6637   25.0391   11.3828 H   0  0  0  0  0  0  0  0  0  0  0  0
    1.6724   26.0184   12.5573 H   0  0  0  0  0  0  0  0  0  0  0  0
    0.4961   27.9784   12.0147 H   0  0  0  0  0  0  0  0  0  0  0  0
   -2.6831   26.1699   11.7114 H   0  0  0  0  0  0  0  0  0  0  0  0
   -4.1091   25.5051   13.6403 H   0  0  0  0  0  0  0  0  0  0  0  0
   -3.2000   25.5981   15.9581 H   0  0  0  0  0  0  0  0  0  0  0  0
   -0.8602   26.3655   16.3458 H   0  0  0  0  0  0  0  0  0  0  0  0
    0.5687   27.0424   14.4257 H   0  0  0  0  0  0  0  0  0  0  0  0
   -1.6501   29.6179    8.5733 H   0  0  0  0  0  0  0  0  0  0  0  0
   -0.3331   31.1952    7.1682 H   0  0  0  0  0  0  0  0  0  0  0  0
    2.1577   31.0837    7.1790 H   0  0  0  0  0  0  0  0  0  0  0  0
    3.3202   29.4231    8.6154 H   0  0  0  0  0  0  0  0  0  0  0  0
    3.0400   28.1800   10.7500 H   0  0  0  0  0  0  0  0  0  0  0  0
  1  2  1  0
  2  3  1  0
  3  4  2  0
  4  5  1  0
  5  6  2  0
  6  7  1  0
  7  8  2  0
  8  9  1  0
  9 10  1  0
 10 11  2  0
 10 12  1  0
 12 13  1  0
 13 14  2  0
 13 15  1  0
 15 16  2  0
 16 17  1  0
 17 18  1  0
 18 19  1  0
 19 20  2  0
 20 21  1  0
 21 22  2  0
 22 23  1  0
 23 24  2  0
 18 25  1  0
 25 26  1  0
 26 27  2  0
 27 28  1  0
 28 29  2  0
 29 30  1  0
 30 31  2  0
 31 32  1  0
 15 33  1  0
 33 34  2  0
  8  3  1  0
 33  9  1  0
 32 16  1  0
 24 19  1  0
 31 26  1  0
  1 35  1  0
  1 36  1  0
  1 37  1  0
  4 38  1  0
  5 39  1  0
  6 40  1  0
  7 41  1  0
 12 42  1  0
 17 43  1  0
 17 44  1  0
 18 45  1  1
 20 46  1  0
 21 47  1  0
 22 48  1  0
 23 49  1  0
 24 50  1  0
 27 51  1  0
 28 52  1  0
 29 53  1  0
 30 54  1  0
 32 55  1  0
M  END
>  <vina_affinity>  (1) 
-7.458

$$$$
dec_C39695139
     RDKit          3D

 72 75  0  0  0  0  0  0  0  0999 V2000
   -1.5430   21.4860   15.7460 C   0  0  0  0  0  0  0  0  0  0  0  0
   -2.8330   22.2700   15.7450 C   0  0  0  0  0  0  0  0  0  0  0  0
   -4.0270   21.6590   16.1830 C   0  0  0  0  0  0  0  0  0  0  0  0
   -4.0670   20.0160   16.7230 Cl  0  0  0  0  0  0  0  0  0  0  0  0
   -5.2330   22.3640   16.2030 C   0  0  0  0  0  0  0  0  0  0  0  0
   -5.2710   23.6930   15.7970 C   0  0  0  0  0  0  0  0  0  0  0  0
   -4.1000   24.3220   15.3840 C   0  0  0  0  0  0  0  0  0  0  0  0
   -2.8700   23.6350   15.3690 C   0  0  0  0  0  0  0  0  0  0  0  0
   -1.6510   24.3880   14.8990 C   0  0  0  0  0  0  0  0  0  0  0  0
   -1.8810   24.9620   13.5890 N   0  0  0  0  0  0  0  0  0  0  0  0
   -1.5270   26.2500   13.2910 C   0  0  0  0  0  0  0  0  0  0  0  0
   -0.9050   26.9690   14.0730 O   0  0  0  0  0  0  0  0  0  0  0  0
   -1.8940   26.7070   11.8870 C   0  0  1  0  0  0  0  0  0  0  0  0
   -2.2680   28.1910   11.8670 C   0  0  0  0  0  0  0  0  0  0  0  0
   -2.0470   28.6050   10.4960 N   0  0  0  0  0  0  0  0  0  0  0  0
   -2.3690   29.8250    9.9210 C   0  0  0  0  0  0  0  0  0  0  0  0
   -3.5510   30.0970    9.6950 O   0  0  0  0  0  0  0  0  0  0  0  0
   -1.2080   30.8100    9.6180 C   0  0  1  0  0  0  0  0  0  0  0  0
   -0.6910   30.4150    8.3410 O   0  0  0  0  0  0  0  0  0  0  0  0
    0.6180   30.0450    8.2080 C   0  0  0  0  0  0  0  0  0  0  0  0
    1.2040   30.4420    7.0020 C   0  0  0  0  0  0  0  0  0  0  0  0
    2.5320   30.1270    6.7140 C   0  0  0  0  0  0  0  0  0  0  0  0
    3.2890   29.4120    7.6370 C   0  0  0  0  0  0  0  0  0  0  0  0
    2.7170   29.0180    8.8440 C   0  0  0  0  0  0  0  0  0  0  0  0
    1.3850   29.3370    9.1330 C   0  0  0  0  0  0  0  0  0  0  0  0
   -1.7170   32.2760    9.5670 C   0  0  0  0  0  0  0  0  0  0  0  0
   -0.7040   33.2530    8.9610 C   0  0  0  0  0  0  0  0  0  0  0  0
   -2.1050   32.7710   10.9660 C   0  0  0  0  0  0  0  0  0  0  0  0
   -1.4130   27.5590    9.7210 C   0  0  0  0  0  0  0  0  0  0  0  0
   -0.7950   26.6040   10.7730 C   0  0  0  0  0  0  0  0  0  0  0  0
    0.5990   27.1650   11.2000 C   0  0  0  0  0  0  0  0  0  0  0  0
    1.7140   26.1230   11.2110 C   0  0  0  0  0  0  0  0  0  0  0  0
    1.1910   24.8620   11.7860 N   0  0  0  0  0  0  0  0  0  0  0  0
    0.1350   24.1890   10.9890 C   0  0  0  0  0  0  0  0  0  0  0  0
   -0.6630   25.1930   10.1620 C   0  0  0  0  0  0  0  0  0  0  0  0
   -1.2303   21.2959   16.7833 H   0  0  0  0  0  0  0  0  0  0  0  0
   -1.6958   20.5279   15.2277 H   0  0  0  0  0  0  0  0  0  0  0  0
   -0.7629   22.0629   15.2277 H   0  0  0  0  0  0  0  0  0  0  0  0
   -6.1542   21.8666   16.5406 H   0  0  0  0  0  0  0  0  0  0  0  0
   -6.2224   24.2451   15.8021 H   0  0  0  0  0  0  0  0  0  0  0  0
   -4.1355   25.3738   15.0638 H   0  0  0  0  0  0  0  0  0  0  0  0
   -1.4264   25.1943   15.6128 H   0  0  0  0  0  0  0  0  0  0  0  0
   -0.8041   23.6889   14.8365 H   0  0  0  0  0  0  0  0  0  0  0  0
   -2.4000   24.3930   12.9300 H   0  0  0  0  0  0  0  0  0  0  0  0
   -2.7071   26.0036   11.6546 H   0  0  0  0  0  0  0  0  0  0  0  0
   -3.3220   28.3297   12.1495 H   0  0  0  0  0  0  0  0  0  0  0  0
   -1.6748   28.7804   12.5816 H   0  0  0  0  0  0  0  0  0  0  0  0
   -0.4380   30.7733   10.4027 H   0  0  0  0  0  0  0  0  0  0  0  0
    0.6100   31.0101    6.2709 H   0  0  0  0  0  0  0  0  0  0  0  0
    2.9795   30.4429    5.7601 H   0  0  0  0  0  0  0  0  0  0  0  0
    4.3360   29.1588    7.4139 H   0  0  0  0  0  0  0  0  0  0  0  0
    3.3151   28.4531    9.5742 H   0  0  0  0  0  0  0  0  0  0  0  0
    0.9423   29.0286   10.0916 H   0  0  0  0  0  0  0  0  0  0  0  0
   -2.5983   32.2567    8.9091 H   0  0  0  0  0  0  0  0  0  0  0  0
   -0.1664   33.7715    9.7685 H   0  0  0  0  0  0  0  0  0  0  0  0
    0.0143   32.6980    8.3397 H   0  0  0  0  0  0  0  0  0  0  0  0
   -1.2327   33.9909    8.3397 H   0  0  0  0  0  0  0  0  0  0  0  0
   -1.6142   32.1449   11.7257 H   0  0  0  0  0  0  0  0  0  0  0  0
   -1.7826   33.8156   11.0878 H   0  0  0  0  0  0  0  0  0  0  0  0
   -3.1964   32.7075   11.0878 H   0  0  0  0  0  0  0  0  0  0  0  0
   -2.1550   27.0292    9.1056 H   0  0  0  0  0  0  0  0  0  0  0  0
   -0.6574   27.9568    9.0276 H   0  0  0  0  0  0  0  0  0  0  0  0
    0.8797   27.9637   10.4976 H   0  0  0  0  0  0  0  0  0  0  0  0
    0.4923   27.5258   12.2336 H   0  0  0  0  0  0  0  0  0  0  0  0
    2.0608   25.9433   10.1827 H   0  0  0  0  0  0  0  0  0  0  0  0
    2.5561   26.4867   11.8180 H   0  0  0  0  0  0  0  0  0  0  0  0
    0.7710   25.0910   12.7160 H   0  0  0  0  0  0  0  0  0  0  0  0
    1.9550   24.2080   12.0010 H   0  0  0  0  0  0  0  0  0  0  0  0
    0.6066   23.4618   10.3116 H   0  0  0  0  0  0  0  0  0  0  0  0
   -0.5547   23.6859   11.6827 H   0  0  0  0  0  0  0  0  0  0  0  0
   -0.1708   25.2926    9.1833 H   0  0  0  0  0  0  0  0  0  0  0  0
   -1.6858   24.7920   10.1064 H   0  0  0  0  0  0  0  0  0  0  0  0
  1  2  1  0
  2  3  2  0
  3  4  1  0
  3  5  1  0
  5  6  2  0
  6  7  1  0
  7  8  2  0
  8  9  1  0
  9 10  1  0
 10 11  1  0
 11 12  2  0
 11 13  1  0
 13 14  1  0
 14 15  1  0
 15 16  1  0
 16 17  2  0
 16 18  1  0
 18 19  1  0
 19 20  1  0
 20 21  2  0
 21 22  1  0
 22 23  2  0
 23 24  1  0
 24 25  2  0
 18 26  1  0
 26 27  1  0
 26 28  1  0
 15 29  1  0
 29 30  1  0
 30 31  1  0
 31 32  1  0
 32 33  1  0
 33 34  1  0
 34 35  1  0
  8  2  1  0
 30 13  1  0
 25 20  1  0
 35 30  1  0
  1 36  1  0
  1 37  1  0
  1 38  1  0
  5 39  1  0
  6 40  1  0
  7 41  1  0
  9 42  1  0
  9 43  1  0
 10 44  1  0
 13 45  1  6
 14 46  1  0
 14 47  1  0
 18 48  1  1
 21 49  1  0
 22 50  1  0
 23 51  1  0
 24 52  1  0
 25 53  1  0
 26 54  1  0
 27 55  1  0
 27 56  1  0
 27 57  1  0
 28 58  1  0
 28 59  1  0
 28 60  1  0
 29 61  1  0
 29 62  1  0
 31 63  1  0
 31 64  1  0
 32 65  1  0
 32 66  1  0
 33 67  1  0
 33 68  1  0
 34 69  1  0
 34 70  1  0
 35 71  1  0
 35 72  1  0
M  CHG  1  33   1
M  END
>  <vina_affinity>  (1) 
-9.323

$$$$
dec_C36331142
     RDKit          3D

 37 39  0  0  0  0  0  0  0  0999 V2000
   -3.9990   27.0680   12.3340 N   0  0  0  0  0  0  0  0  0  0  0  0
   -2.8990   27.5510   11.5780 C   0  0  0  0  0  0  0  0  0  0  0  0
   -2.9840   28.8070   10.9640 C   0  0  0  0  0  0  0  0  0  0  0  0
   -1.9090   29.2320   10.2110 C   0  0  0  0  0  0  0  0  0  0  0  0
   -0.7930   28.4170   10.0480 C   0  0  0  0  0  0  0  0  0  0  0  0
   -0.7050   27.1480   10.5860 C   0  0  0  0  0  0  0  0  0  0  0  0
   -1.8030   26.6660   11.3070 C   0  0  0  0  0  0  0  0  0  0  0  0
   -1.8600   25.3780   11.8880 N   0  0  0  0  0  0  0  0  0  0  0  0
   -0.7410   24.8410   12.6620 C   0  0  0  0  0  0  0  0  0  0  0  0
   -0.8990   25.3230   14.1210 C   0  0  0  0  0  0  0  0  0  0  0  0
   -1.7590   24.3960   14.9610 C   0  0  0  0  0  0  0  0  0  0  0  0
   -0.9560   22.8170   15.1860 S   0  0  0  0  0  0  0  0  0  0  0  0
   -0.0210   22.9440   16.2850 O   0  0  0  0  0  0  0  0  0  0  0  0
   -1.9870   21.7970   15.1890 O   0  0  0  0  0  0  0  0  0  0  0  0
    0.0010   22.6300   13.6890 C   0  0  0  0  0  0  0  0  0  0  0  0
   -0.6870   23.3070   12.5180 C   0  0  0  0  0  0  0  0  0  0  0  0
    0.1530   29.0750    9.2760 N   0  0  0  0  0  0  0  0  0  0  0  0
   -0.2940   30.3330    8.8940 C   0  0  0  0  0  0  0  0  0  0  0  0
    0.3260   31.1320    8.2110 O   0  0  0  0  0  0  0  0  0  0  0  0
   -1.6950   30.5260    9.4840 C   0  0  0  0  0  0  0  0  0  0  0  0
   -4.5020   26.3270   11.8520 H   0  0  0  0  0  0  0  0  0  0  0  0
   -4.6270   27.8440   12.5440 H   0  0  0  0  0  0  0  0  0  0  0  0
   -3.8799   29.4349   11.0786 H   0  0  0  0  0  0  0  0  0  0  0  0
    0.1991   26.5360   10.4520 H   0  0  0  0  0  0  0  0  0  0  0  0
   -2.1880   24.7430   11.1560 H   0  0  0  0  0  0  0  0  0  0  0  0
    0.2261   25.2080   12.2878 H   0  0  0  0  0  0  0  0  0  0  0  0
    0.0989   25.3868   14.5793 H   0  0  0  0  0  0  0  0  0  0  0  0
   -1.4004   26.3017   14.0922 H   0  0  0  0  0  0  0  0  0  0  0  0
   -1.9311   24.8566   15.9450 H   0  0  0  0  0  0  0  0  0  0  0  0
   -2.7151   24.2346   14.4415 H   0  0  0  0  0  0  0  0  0  0  0  0
    0.9920   23.0842   13.8360 H   0  0  0  0  0  0  0  0  0  0  0  0
    0.0991   21.5572   13.4664 H   0  0  0  0  0  0  0  0  0  0  0  0
   -0.1384   23.0596   11.5972 H   0  0  0  0  0  0  0  0  0  0  0  0
   -1.7238   22.9408   12.4864 H   0  0  0  0  0  0  0  0  0  0  0  0
    1.0550   28.7110    9.0060 H   0  0  0  0  0  0  0  0  0  0  0  0
   -1.7233   31.3817   10.1746 H   0  0  0  0  0  0  0  0  0  0  0  0
   -2.4667   30.7443    8.7311 H   0  0  0  0  0  0  0  0  0  0  0  0
  1  2  1  0
  2  3  2  0
  3  4  1  0
  4  5  2  0
  5  6  1  0
  6  7  2  0
  7  8  1  0
  8  9  1  0
  9 10  1  0
 10 11  1  0
 11 12  1  0
 12 13  2  0
 12 14  2  0
 12 15  1  0
 15 16  1  0
  5 17  1  0
 17 18  1  0
 18 19  2  0
 18 20  1  0
  7  2  1  0
 16  9  1  0
 20  4  1  0
  1 21  1  0
  1 22  1  0
  3 23  1  0
  6 24  1  0
  8 25  1  0
  9 26  1  0
 10 27  1  0
 10 28  1  0
 11 29  1  0
 11 30  1  0
 15 31  1  0
 15 32  1  0
 16 33  1  0
 16 34  1  0
 17 35  1  0
 20 36  1  0
 20 37  1  0
M  END
>  <vina_affinity>  (1) 
-7.399

$$$$
dec_C34898335
     RDKit          3D

 47 50  0  0  0  0  0  0  0  0999 V2000
    1.7280   27.3740   10.8360 C   0  0  0  0  0  0  0  0  0  0  0  0
    0.3680   27.2030   11.4580 C   0  0  0  0  0  0  0  0  0  0  0  0
    0.3560   26.1380   12.3500 O   0  0  0  0  0  0  0  0  0  0  0  0
   -0.8030   25.8330   13.0100 C   0  0  0  0  0  0  0  0  0  0  0  0
   -0.7530   24.7770   13.9250 C   0  0  0  0  0  0  0  0  0  0  0  0
   -1.9000   24.4070   14.6290 C   0  0  0  0  0  0  0  0  0  0  0  0
   -1.9930   23.4030   15.5500 O   0  0  0  0  0  0  0  0  0  0  0  0
   -0.9570   22.4040   15.5750 C   0  0  1  0  0  0  0  0  0  0  0  0
   -0.4780   22.1660   16.9030 O   0  0  0  0  0  0  0  0  0  0  0  0
   -1.0700   21.0680   17.6050 C   0  0  0  0  0  0  0  0  0  0  0  0
   -2.5330   20.7780   17.2560 C   0  0  1  0  0  0  0  0  0  0  0  0
   -3.3680   21.8170   17.7840 O   0  0  0  0  0  0  0  0  0  0  0  0
   -2.7450   20.6460   15.7390 C   0  0  1  0  0  0  0  0  0  0  0  0
   -3.9140   21.3920   15.3360 O   0  0  0  0  0  0  0  0  0  0  0  0
   -1.5210   21.1170   14.9410 C   0  0  1  0  0  0  0  0  0  0  0  0
   -1.8770   21.2980   13.5650 O   0  0  0  0  0  0  0  0  0  0  0  0
   -3.0910   25.1110   14.4160 C   0  0  0  0  0  0  0  0  0  0  0  0
   -3.1400   26.1650   13.5010 C   0  0  0  0  0  0  0  0  0  0  0  0
   -1.9870   26.5220   12.7980 C   0  0  0  0  0  0  0  0  0  0  0  0
   -2.0040   27.6220   11.8260 C   0  0  0  0  0  0  0  0  0  0  0  0
   -3.0530   28.2100   11.5860 O   0  0  0  0  0  0  0  0  0  0  0  0
   -0.7130   27.9630   11.1610 C   0  0  0  0  0  0  0  0  0  0  0  0
   -0.6540   29.1140   10.2380 C   0  0  0  0  0  0  0  0  0  0  0  0
   -0.4410   28.9430    8.8710 C   0  0  0  0  0  0  0  0  0  0  0  0
   -0.3950   30.0650    8.0470 C   0  0  0  0  0  0  0  0  0  0  0  0
   -0.5640   31.3270    8.6040 C   0  0  0  0  0  0  0  0  0  0  0  0
   -0.7700   31.4130    9.9680 C   0  0  0  0  0  0  0  0  0  0  0  0
   -0.8140   30.3430   10.7930 N   0  0  0  0  0  0  0  0  0  0  0  0
    2.4845   27.4691   11.6289 H   0  0  0  0  0  0  0  0  0  0  0  0
    1.9587   26.4978   10.2123 H   0  0  0  0  0  0  0  0  0  0  0  0
    1.7346   28.2801   10.2123 H   0  0  0  0  0  0  0  0  0  0  0  0
    0.1912   24.2373   14.0902 H   0  0  0  0  0  0  0  0  0  0  0  0
   -0.0897   22.7586   14.9988 H   0  0  0  0  0  0  0  0  0  0  0  0
   -0.4823   20.1655   17.3812 H   0  0  0  0  0  0  0  0  0  0  0  0
   -1.0616   21.3481   18.6687 H   0  0  0  0  0  0  0  0  0  0  0  0
   -2.8062   19.8143   17.7105 H   0  0  0  0  0  0  0  0  0  0  0  0
   -2.8200   22.6260   17.8020 H   0  0  0  0  0  0  0  0  0  0  0  0
   -2.8926   19.5785   15.5184 H   0  0  0  0  0  0  0  0  0  0  0  0
   -4.0150   22.0970   16.0140 H   0  0  0  0  0  0  0  0  0  0  0  0
   -0.7288   20.3546   14.9751 H   0  0  0  0  0  0  0  0  0  0  0  0
   -2.6010   20.6620   13.3900 H   0  0  0  0  0  0  0  0  0  0  0  0
   -3.9966   24.8315   14.9744 H   0  0  0  0  0  0  0  0  0  0  0  0
   -4.0806   26.7106   13.3350 H   0  0  0  0  0  0  0  0  0  0  0  0
   -0.3110   27.9356    8.4488 H   0  0  0  0  0  0  0  0  0  0  0  0
   -0.2265   29.9533    6.9657 H   0  0  0  0  0  0  0  0  0  0  0  0
   -0.5347   32.2308    7.9777 H   0  0  0  0  0  0  0  0  0  0  0  0
   -0.9063   32.4117   10.4085 H   0  0  0  0  0  0  0  0  0  0  0  0
  1  2  1  0
  2  3  1  0
  3  4  1  0
  4  5  2  0
  5  6  1  0
  6  7  1  0
  7  8  1  0
  8  9  1  0
  9 10  1  0
 10 11  1  0
 11 12  1  0
 11 13  1  0
 13 14  1  0
 13 15  1  0
 15 16  1  0
  6 17  2  0
 17 18  1  0
 18 19  2  0
 19 20  1  0
 20 21  2  0
 20 22  1  0
 22 23  1  0
 23 24  2  0
 24 25  1  0
 25 26  2  0
 26 27  1  0
 27 28  2  0
 22  2  2  0
 28 23  1  0
 19  4  1  0
 15  8  1  0
  1 29  1  0
  1 30  1  0
  1 31  1  0
  5 32  1  0
  8 33  1  6
 10 34  1  0
 10 35  1  0
 11 36  1  1
 12 37  1  0
 13 38  1  1
 14 39  1  0
 15 40  1  6
 16 41  1  0
 17 42  1  0
 18 43  1  0
 24 44  1  0
 25 45  1  0
 26 46  1  0
 27 47  1  0
M  END
>  <vina_affinity>  (1) 
-8.401

$$$$
dec_C49068278
     RDKit          3D

 60 66  0  0  0  0  0  0  0  0999 V2000
   -0.4260   19.5790   18.3050 O   0  0  0  0  0  0  0  0  0  0  0  0
   -0.6870   19.7360   16.9750 C   0  0  0  0  0  0  0  0  0  0  0  0
   -0.8660   18.5880   16.2120 C   0  0  0  0  0  0  0  0  0  0  0  0
   -1.1450   18.7030   14.8520 C   0  0  0  0  0  0  0  0  0  0  0  0
   -1.2360   19.9660   14.2620 C   0  0  0  0  0  0  0  0  0  0  0  0
   -1.0430   21.1250   15.0300 C   0  0  0  0  0  0  0  0  0  0  0  0
   -1.1110   22.4370   14.4010 C   0  0  0  0  0  0  0  0  0  0  0  0
   -0.3510   23.0090   13.3390 C   0  0  0  0  0  0  0  0  0  0  0  0
    0.7910   22.4470   12.6150 C   0  0  0  0  0  0  0  0  0  0  0  0
    1.7030   21.5980   13.2480 C   0  0  0  0  0  0  0  0  0  0  0  0
    2.7620   21.1010   12.5080 C   0  0  0  0  0  0  0  0  0  0  0  0
    2.9730   21.3950   11.2070 N   0  0  0  0  0  0  0  0  0  0  0  0
    2.0880   22.2260   10.6200 C   0  0  0  0  0  0  0  0  0  0  0  0
    0.9970   22.7720   11.2720 C   0  0  0  0  0  0  0  0  0  0  0  0
   -0.8040   24.2290   13.0180 N   0  0  0  0  0  0  0  0  0  0  0  0
   -1.8130   24.4850   13.8880 N   0  0  0  0  0  0  0  0  0  0  0  0
   -2.5980   25.6530   13.9770 C   0  0  0  0  0  0  0  0  0  0  0  0
   -2.3740   26.7990   13.0740 C   0  0  0  0  0  0  0  0  0  0  0  0
   -3.2550   27.0680   12.0260 C   0  0  0  0  0  0  0  0  0  0  0  0
   -3.0180   28.1360   11.1450 C   0  0  0  0  0  0  0  0  0  0  0  0
   -1.8970   28.9730   11.2640 C   0  0  0  0  0  0  0  0  0  0  0  0
   -1.6720   30.0020   10.3880 N   0  0  0  0  0  0  0  0  0  0  0  0
   -1.5200   31.4170   10.7730 C   0  0  0  0  0  0  0  0  0  0  0  0
   -1.3970   32.0860    9.3750 C   0  0  2  0  0  0  0  0  0  0  0  0
   -2.4410   31.3020    8.5900 C   0  0  0  0  0  0  0  0  0  0  0  0
   -1.8020   29.9450    8.9120 C   0  0  1  0  0  0  0  0  0  0  0  0
   -0.3950   30.1530    8.3110 C   0  0  0  0  0  0  0  0  0  0  0  0
   -0.0910   31.6010    8.7170 N   0  0  0  0  0  0  0  0  0  0  0  0
   -1.0380   28.7030   12.3360 C   0  0  0  0  0  0  0  0  0  0  0  0
   -1.2700   27.6400   13.2150 C   0  0  0  0  0  0  0  0  0  0  0  0
   -0.3920   27.4430   14.2110 F   0  0  0  0  0  0  0  0  0  0  0  0
   -3.5710   25.7170   14.9040 C   0  0  0  0  0  0  0  0  0  0  0  0
   -3.7240   24.5210   15.7700 C   0  0  0  0  0  0  0  0  0  0  0  0
   -3.0140   23.4380   15.7110 N   0  0  0  0  0  0  0  0  0  0  0  0
   -2.0330   23.4080   14.7540 C   0  0  0  0  0  0  0  0  0  0  0  0
   -0.7700   21.0010   16.3980 C   0  0  0  0  0  0  0  0  0  0  0  0
    0.4970   19.2920   18.4070 H   0  0  0  0  0  0  0  0  0  0  0  0
   -0.7879   17.5951   16.6790 H   0  0  0  0  0  0  0  0  0  0  0  0
   -1.2936   17.7993   14.2427 H   0  0  0  0  0  0  0  0  0  0  0  0
   -1.4604   20.0528   13.1886 H   0  0  0  0  0  0  0  0  0  0  0  0
    1.5822   21.3313   14.3083 H   0  0  0  0  0  0  0  0  0  0  0  0
    3.4730   20.4274   13.0088 H   0  0  0  0  0  0  0  0  0  0  0  0
    2.2425   22.4845    9.5620 H   0  0  0  0  0  0  0  0  0  0  0  0
    0.3069   23.4471   10.7447 H   0  0  0  0  0  0  0  0  0  0  0  0
   -4.1451   26.4366   11.8882 H   0  0  0  0  0  0  0  0  0  0  0  0
   -3.7361   28.3233   10.3330 H   0  0  0  0  0  0  0  0  0  0  0  0
   -2.3997   31.7842   11.3218 H   0  0  0  0  0  0  0  0  0  0  0  0
   -0.6766   31.6173   11.4502 H   0  0  0  0  0  0  0  0  0  0  0  0
   -1.4695   33.1830    9.4126 H   0  0  0  0  0  0  0  0  0  0  0  0
   -3.4591   31.4098    8.9922 H   0  0  0  0  0  0  0  0  0  0  0  0
   -2.6114   31.5649    7.5355 H   0  0  0  0  0  0  0  0  0  0  0  0
   -2.3061   29.0295    8.5690 H   0  0  0  0  0  0  0  0  0  0  0  0
    0.3339   29.4536    8.7464 H   0  0  0  0  0  0  0  0  0  0  0  0
   -0.3429   29.9741    7.2269 H   0  0  0  0  0  0  0  0  0  0  0  0
    0.6830   31.6180    9.3950 H   0  0  0  0  0  0  0  0  0  0  0  0
    0.1700   32.1750    7.9070 H   0  0  0  0  0  0  0  0  0  0  0  0
   -0.1574   29.3437   12.4911 H   0  0  0  0  0  0  0  0  0  0  0  0
   -4.2145   26.6024   15.0136 H   0  0  0  0  0  0  0  0  0  0  0  0
   -4.5146   24.5572   16.5340 H   0  0  0  0  0  0  0  0  0  0  0  0
   -0.6216   21.8997   17.0148 H   0  0  0  0  0  0  0  0  0  0  0  0
  1  2  1  0
  2  3  2  0
  3  4  1  0
  4  5  2  0
  5  6  1  0
  6  7  1  0
  7  8  1  0
  8  9  1  0
  9 10  2  0
 10 11  1  0
 11 12  2  0
 12 13  1  0
 13 14  2  0
  8 15  2  0
 15 16  1  0
 16 17  1  0
 17 18  1  0
 18 19  2  0
 19 20  1  0
 20 21  2  0
 21 22  1  0
 22 23  1  0
 23 24  1  0
 24 25  1  0
 25 26  1  0
 26 27  1  0
 27 28  1  0
 21 29  1  0
 29 30  2  0
 30 31  1  0
 17 32  2  0
 32 33  1  0
 33 34  2  0
 34 35  1  0
  6 36  2  0
 36  2  1  0
 35  7  2  0
 14  9  1  0
 35 16  1  0
 30 18  1  0
 26 22  1  0
 28 24  1  0
  1 37  1  0
  3 38  1  0
  4 39  1  0
  5 40  1  0
 10 41  1  0
 11 42  1  0
 13 43  1  0
 14 44  1  0
 19 45  1  0
 20 46  1  0
 23 47  1  0
 23 48  1  0
 24 49  1  1
 25 50  1  0
 25 51  1  0
 26 52  1  1
 27 53  1  0
 27 54  1  0
 28 55  1  0
 28 56  1  0
 29 57  1  0
 32 58  1  0
 33 59  1  0
 36 60  1  0
M  CHG  1  28   1
M  END
>  <vina_affinity>  (1) 
-9.095

$$$$
dec_C09197661
     RDKit          3D

 58 61  0  0  0  0  0  0  0  0999 V2000
    5.7520   26.5790    7.8360 C   0  0  0  0  0  0  0  0  0  0  0  0
    4.4720   27.3480    8.1160 C   0  0  0  0  0  0  0  0  0  0  0  0
    3.5200   26.4350    8.6590 O   0  0  0  0  0  0  0  0  0  0  0  0
    2.5950   26.9410    9.5270 C   0  0  0  0  0  0  0  0  0  0  0  0
    1.9150   26.2300   10.5120 C   0  0  0  0  0  0  0  0  0  0  0  0
    0.9900   26.8760   11.3440 C   0  0  0  0  0  0  0  0  0  0  0  0
    0.7240   28.2470   11.2100 C   0  0  0  0  0  0  0  0  0  0  0  0
   -0.2420   29.0200   12.1130 C   0  0  1  0  0  0  0  0  0  0  0  0
   -0.5300   30.3850   11.6160 N   0  0  0  0  0  0  0  0  0  0  0  0
   -1.6520   30.4620   10.7100 N   0  0  0  0  0  0  0  0  0  0  0  0
   -1.9560   31.5360    9.9010 C   0  0  0  0  0  0  0  0  0  0  0  0
   -1.1720   32.8010    9.8810 C   0  0  0  0  0  0  0  0  0  0  0  0
   -0.3950   32.9920    8.5880 C   0  0  0  0  0  0  0  0  0  0  0  0
   -3.0200   31.2390    9.1780 N   0  0  0  0  0  0  0  0  0  0  0  0
   -3.4440   29.9770    9.5290 N   0  0  0  0  0  0  0  0  0  0  0  0
   -2.6360   29.5350   10.4610 C   0  0  0  0  0  0  0  0  0  0  0  0
   -2.7090   27.9800   11.2110 S   0  0  0  0  0  0  0  0  0  0  0  0
   -1.5110   28.2500   12.5630 C   0  0  1  0  0  0  0  0  0  0  0  0
   -1.1390   26.9480   13.2770 C   0  0  0  0  0  0  0  0  0  0  0  0
   -0.3950   26.9950   14.2550 O   0  0  0  0  0  0  0  0  0  0  0  0
   -1.6130   25.7960   12.6770 N   0  0  0  0  0  0  0  0  0  0  0  0
   -1.3500   24.4570   13.0290 C   0  0  0  0  0  0  0  0  0  0  0  0
   -0.6870   23.6710   12.0800 C   0  0  0  0  0  0  0  0  0  0  0  0
   -0.3850   22.3260   12.3360 C   0  0  0  0  0  0  0  0  0  0  0  0
    0.3540   21.5060   11.3200 C   0  0  0  0  0  0  0  0  0  0  0  0
   -0.7320   21.7750   13.5730 C   0  0  0  0  0  0  0  0  0  0  0  0
   -1.3850   22.5490   14.5400 C   0  0  0  0  0  0  0  0  0  0  0  0
   -1.7950   21.9420   15.8500 C   0  0  0  0  0  0  0  0  0  0  0  0
   -1.7030   23.8870   14.2530 C   0  0  0  0  0  0  0  0  0  0  0  0
    1.4140   28.9480   10.2060 C   0  0  0  0  0  0  0  0  0  0  0  0
    2.3370   28.3030    9.3790 C   0  0  0  0  0  0  0  0  0  0  0  0
    6.2248   26.2950    8.7878 H   0  0  0  0  0  0  0  0  0  0  0  0
    5.5165   25.6727    7.2588 H   0  0  0  0  0  0  0  0  0  0  0  0
    6.4415   27.2125    7.2588 H   0  0  0  0  0  0  0  0  0  0  0  0
    4.6707   28.1537    8.8381 H   0  0  0  0  0  0  0  0  0  0  0  0
    4.0854   27.7976    7.1895 H   0  0  0  0  0  0  0  0  0  0  0  0
    2.1048   25.1539   10.6383 H   0  0  0  0  0  0  0  0  0  0  0  0
    0.4628   26.2970   12.1165 H   0  0  0  0  0  0  0  0  0  0  0  0
    0.3217   29.1372   13.0503 H   0  0  0  0  0  0  0  0  0  0  0  0
    0.3240   30.7580   11.1990 H   0  0  0  0  0  0  0  0  0  0  0  0
   -1.8654   33.6462   10.0025 H   0  0  0  0  0  0  0  0  0  0  0  0
   -0.4417   32.7512   10.7021 H   0  0  0  0  0  0  0  0  0  0  0  0
    0.6488   33.2486    8.8219 H   0  0  0  0  0  0  0  0  0  0  0  0
   -0.4214   32.0606    8.0033 H   0  0  0  0  0  0  0  0  0  0  0  0
   -0.8502   33.8050    8.0033 H   0  0  0  0  0  0  0  0  0  0  0  0
   -2.0313   28.8944   13.2870 H   0  0  0  0  0  0  0  0  0  0  0  0
   -2.2120   25.9290   11.8680 H   0  0  0  0  0  0  0  0  0  0  0  0
   -0.3978   24.1160   11.1165 H   0  0  0  0  0  0  0  0  0  0  0  0
    1.0048   20.7839   11.8348 H   0  0  0  0  0  0  0  0  0  0  0  0
   -0.3677   20.9652   10.6901 H   0  0  0  0  0  0  0  0  0  0  0  0
    0.9667   22.1677   10.6901 H   0  0  0  0  0  0  0  0  0  0  0  0
   -0.4899   20.7239   13.7886 H   0  0  0  0  0  0  0  0  0  0  0  0
   -1.3885   22.5438   16.6762 H   0  0  0  0  0  0  0  0  0  0  0  0
   -2.8928   21.9214   15.9170 H   0  0  0  0  0  0  0  0  0  0  0  0
   -1.4042   20.9159   15.9170 H   0  0  0  0  0  0  0  0  0  0  0  0
   -2.2361   24.4920   15.0012 H   0  0  0  0  0  0  0  0  0  0  0  0
    1.2241   30.0228   10.0690 H   0  0  0  0  0  0  0  0  0  0  0  0
    2.8657   28.8759    8.6029 H   0  0  0  0  0  0  0  0  0  0  0  0
  1  2  1  0
  2  3  1  0
  3  4  1  0
  4  5  2  0
  5  6  1  0
  6  7  2  0
  7  8  1  0
  8  9  1  0
  9 10  1  0
 10 11  1  0
 11 12  1  0
 12 13  1  0
 11 14  2  0
 14 15  1  0
 15 16  2  0
 16 17  1  0
 17 18  1  0
 18 19  1  0
 19 20  2  0
 19 21  1  0
 21 22  1  0
 22 23  2  0
 23 24  1  0
 24 25  1  0
 24 26  2  0
 26 27  1  0
 27 28  1  0
 27 29  2  0
  7 30  1  0
 30 31  2  0
 31  4  1  0
 18  8  1  0
 29 22  1  0
 16 10  1  0
  1 32  1  0
  1 33  1  0
  1 34  1  0
  2 35  1  0
  2 36  1  0
  5 37  1  0
  6 38  1  0
  8 39  1  1
  9 40  1  0
 12 41  1  0
 12 42  1  0
 13 43  1  0
 13 44  1  0
 13 45  1  0
 18 46  1  1
 21 47  1  0
 23 48  1  0
 25 49  1  0
 25 50  1  0
 25 51  1  0
 26 52  1  0
 28 53  1  0
 28 54  1  0
 28 55  1  0
 29 56  1  0
 30 57  1  0
 31 58  1  0
M  END
>  <vina_affinity>  (1) 
-8.091

$$$$
dec_C20805782
     RDKit          3D

 57 61  0  0  0  0  0  0  0  0999 V2000
   -0.5630   19.7340   15.2900 N   0  0  0  0  0  0  0  0  0  0  0  0
   -1.1250   20.7490   15.2650 C   0  0  0  0  0  0  0  0  0  0  0  0
   -1.7860   22.0180   15.2010 C   0  0  0  0  0  0  0  0  0  0  0  0
   -1.3040   23.0830   14.4590 C   0  0  0  0  0  0  0  0  0  0  0  0
   -0.1400   23.1180   13.7010 N   0  0  0  0  0  0  0  0  0  0  0  0
    0.0450   22.5970   12.4260 C   0  0  0  0  0  0  0  0  0  0  0  0
   -0.7700   21.9770   11.7500 O   0  0  0  0  0  0  0  0  0  0  0  0
    1.4440   22.8610   11.8940 C   0  0  0  0  0  0  0  0  0  0  0  0
    1.7810   24.6460   11.9620 S   0  0  0  0  0  0  0  0  0  0  0  0
    0.2950   25.2500   11.3180 C   0  0  0  0  0  0  0  0  0  0  0  0
   -0.2960   24.8650   10.2120 N   0  0  0  0  0  0  0  0  0  0  0  0
   -1.4600   25.6020   10.0900 N   0  0  0  0  0  0  0  0  0  0  0  0
   -1.5500   26.4180   11.1250 C   0  0  0  0  0  0  0  0  0  0  0  0
   -2.4890   27.3340   11.4690 N   0  0  0  0  0  0  0  0  0  0  0  0
   -2.3490   28.6580   11.2040 N   0  0  0  0  0  0  0  0  0  0  0  0
   -1.5200   28.9590   10.2520 C   0  0  0  0  0  0  0  0  0  0  0  0
   -1.2650   30.3660    9.8520 C   0  0  0  0  0  0  0  0  0  0  0  0
   -2.0760   31.3570   10.4300 C   0  0  0  0  0  0  0  0  0  0  0  0
   -1.8960   32.6950   10.1030 C   0  0  0  0  0  0  0  0  0  0  0  0
   -0.9030   33.0540    9.1970 C   0  0  0  0  0  0  0  0  0  0  0  0
   -0.0760   32.0870    8.6040 C   0  0  0  0  0  0  0  0  0  0  0  0
    0.9150   32.4910    7.6950 C   0  0  0  0  0  0  0  0  0  0  0  0
    1.7550   31.5610    7.0850 C   0  0  0  0  0  0  0  0  0  0  0  0
    1.6140   30.2130    7.3790 C   0  0  0  0  0  0  0  0  0  0  0  0
    0.6330   29.7940    8.2820 C   0  0  0  0  0  0  0  0  0  0  0  0
   -0.2420   30.7120    8.9220 C   0  0  0  0  0  0  0  0  0  0  0  0
   -0.4490   26.2230   11.9320 N   0  0  0  0  0  0  0  0  0  0  0  0
   -0.1610   26.9260   13.1720 N   0  0  0  0  0  0  0  0  0  0  0  0
   -2.3260   24.4380   14.5880 S   0  0  0  0  0  0  0  0  0  0  0  0
   -3.4080   23.6240   15.6090 C   0  0  0  0  0  0  0  0  0  0  0  0
   -3.0110   22.3290   15.8790 C   0  0  0  0  0  0  0  0  0  0  0  0
   -3.8260   21.4160   16.7500 C   0  0  0  0  0  0  0  0  0  0  0  0
   -4.8570   22.1930   17.5850 C   0  0  0  0  0  0  0  0  0  0  0  0
   -5.5960   23.2430   16.7420 C   0  0  0  0  0  0  0  0  0  0  0  0
   -4.6310   24.2890   16.1630 C   0  0  0  0  0  0  0  0  0  0  0  0
    0.6790   23.5180   14.1500 H   0  0  0  0  0  0  0  0  0  0  0  0
    2.1797   22.3238   12.5105 H   0  0  0  0  0  0  0  0  0  0  0  0
    1.5167   22.5101   10.8540 H   0  0  0  0  0  0  0  0  0  0  0  0
   -3.3250   26.9860   11.9400 H   0  0  0  0  0  0  0  0  0  0  0  0
   -0.9917   28.1495    9.7270 H   0  0  0  0  0  0  0  0  0  0  0  0
   -2.8596   31.0711   11.1471 H   0  0  0  0  0  0  0  0  0  0  0  0
   -2.5349   33.4663   10.5578 H   0  0  0  0  0  0  0  0  0  0  0  0
   -0.7634   34.1146    8.9408 H   0  0  0  0  0  0  0  0  0  0  0  0
    1.0303   33.5595    7.4604 H   0  0  0  0  0  0  0  0  0  0  0  0
    2.5256   31.8944    6.3743 H   0  0  0  0  0  0  0  0  0  0  0  0
    2.2741   29.4738    6.9016 H   0  0  0  0  0  0  0  0  0  0  0  0
    0.5355   28.7210    8.5038 H   0  0  0  0  0  0  0  0  0  0  0  0
   -0.2940   26.2900   13.9590 H   0  0  0  0  0  0  0  0  0  0  0  0
    0.8310   27.1680   13.1970 H   0  0  0  0  0  0  0  0  0  0  0  0
   -4.3563   20.6943   16.1113 H   0  0  0  0  0  0  0  0  0  0  0  0
   -3.1419   20.9035   17.4423 H   0  0  0  0  0  0  0  0  0  0  0  0
   -5.5912   21.4838   17.9947 H   0  0  0  0  0  0  0  0  0  0  0  0
   -4.3214   22.7157   18.3911 H   0  0  0  0  0  0  0  0  0  0  0  0
   -6.1114   22.7360   15.9129 H   0  0  0  0  0  0  0  0  0  0  0  0
   -6.3138   23.7625   17.3938 H   0  0  0  0  0  0  0  0  0  0  0  0
   -5.1375   24.8431   15.3590 H   0  0  0  0  0  0  0  0  0  0  0  0
   -4.3290   24.9777   16.9658 H   0  0  0  0  0  0  0  0  0  0  0  0
  1  2  3  0
  2  3  1  0
  3  4  2  0
  4  5  1  0
  5  6  1  0
  6  7  2  0
  6  8  1  0
  8  9  1  0
  9 10  1  0
 10 11  2  0
 11 12  1  0
 12 13  2  0
 13 14  1  0
 14 15  1  0
 15 16  2  0
 16 17  1  0
 17 18  2  0
 18 19  1  0
 19 20  2  0
 20 21  1  0
 21 22  2  0
 22 23  1  0
 23 24  2  0
 24 25  1  0
 25 26  2  0
 13 27  1  0
 27 28  1  0
  4 29  1  0
 29 30  1  0
 30 31  2  0
 31 32  1  0
 32 33  1  0
 33 34  1  0
 34 35  1  0
 31  3  1  0
 27 10  1  0
 35 30  1  0
 26 17  1  0
 26 21  1  0
  5 36  1  0
  8 37  1  0
  8 38  1  0
 14 39  1  0
 16 40  1  0
 18 41  1  0
 19 42  1  0
 20 43  1  0
 22 44  1  0
 23 45  1  0
 24 46  1  0
 25 47  1  0
 28 48  1  0
 28 49  1  0
 32 50  1  0
 32 51  1  0
 33 52  1  0
 33 53  1  0
 34 54  1  0
 34 55  1  0
 35 56  1  0
 35 57  1  0
M  END
>  <vina_affinity>  (1) 
-10.129

$$$$
dec_C23442830
     RDKit          3D

 36 37  0  0  0  0  0  0  0  0999 V2000
    2.2020   27.9180    9.7510 C   0  0  0  0  0  0  0  0  0  0  0  0
    1.6120   29.1170    9.0530 C   0  0  0  0  0  0  0  0  0  0  0  0
    2.3460   29.6930    7.9970 C   0  0  0  0  0  0  0  0  0  0  0  0
    1.8560   30.7890    7.2880 C   0  0  0  0  0  0  0  0  0  0  0  0
    0.6380   31.3520    7.6480 C   0  0  0  0  0  0  0  0  0  0  0  0
   -0.1020   30.7930    8.7030 C   0  0  0  0  0  0  0  0  0  0  0  0
   -1.2280   31.5890    9.1800 N   0  0  0  0  0  0  0  0  0  0  0  0
   -0.9820   32.7150    9.6410 O   0  0  0  0  0  0  0  0  0  0  0  0
   -2.3430   31.0440    9.1900 O   0  0  0  0  0  0  0  0  0  0  0  0
    0.3440   29.6450    9.3940 C   0  0  0  0  0  0  0  0  0  0  0  0
   -0.3930   28.9770   10.4070 N   0  0  0  0  0  0  0  0  0  0  0  0
   -0.2280   29.1990   11.7670 C   0  0  0  0  0  0  0  0  0  0  0  0
    0.5070   30.0680   12.2310 O   0  0  0  0  0  0  0  0  0  0  0  0
   -1.1380   28.3550   12.6490 C   0  0  0  0  0  0  0  0  0  0  0  0
   -1.9920   27.0660   11.6890 S   0  0  0  0  0  0  0  0  0  0  0  0
   -0.8330   25.7780   11.8520 C   0  0  0  0  0  0  0  0  0  0  0  0
    0.4340   25.9960   11.9000 N   0  0  0  0  0  0  0  0  0  0  0  0
    1.2630   24.9080   11.9830 C   0  0  0  0  0  0  0  0  0  0  0  0
    2.6220   25.1340   11.9610 N   0  0  0  0  0  0  0  0  0  0  0  0
    0.7920   23.6520   12.0500 C   0  0  0  0  0  0  0  0  0  0  0  0
   -0.6620   23.4340   12.0340 C   0  0  0  0  0  0  0  0  0  0  0  0
   -1.1450   22.3110   12.1160 O   0  0  0  0  0  0  0  0  0  0  0  0
   -1.4140   24.5580   11.9270 N   0  0  0  0  0  0  0  0  0  0  0  0
    2.1335   28.0572   10.8400 H   0  0  0  0  0  0  0  0  0  0  0  0
    1.6456   27.0144    9.4611 H   0  0  0  0  0  0  0  0  0  0  0  0
    3.2574   27.8075    9.4611 H   0  0  0  0  0  0  0  0  0  0  0  0
    3.3247   29.2697    7.7268 H   0  0  0  0  0  0  0  0  0  0  0  0
    2.4309   31.2058    6.4479 H   0  0  0  0  0  0  0  0  0  0  0  0
    0.2549   32.2313    7.1094 H   0  0  0  0  0  0  0  0  0  0  0  0
   -1.2690   28.5420   10.1430 H   0  0  0  0  0  0  0  0  0  0  0  0
   -0.5320   27.8750   13.4315 H   0  0  0  0  0  0  0  0  0  0  0  0
   -1.8982   29.0156   13.0914 H   0  0  0  0  0  0  0  0  0  0  0  0
    2.9620   25.0960   12.9220 H   0  0  0  0  0  0  0  0  0  0  0  0
    2.8570   26.0250   11.5340 H   0  0  0  0  0  0  0  0  0  0  0  0
    1.4837   22.7992   12.1159 H   0  0  0  0  0  0  0  0  0  0  0  0
   -2.4150   24.4620   11.8890 H   0  0  0  0  0  0  0  0  0  0  0  0
  1  2  1  0
  2  3  2  0
  3  4  1  0
  4  5  2  0
  5  6  1  0
  6  7  1  0
  7  8  2  0
  7  9  1  0
  6 10  2  0
 10 11  1  0
 11 12  1  0
 12 13  2  0
 12 14  1  0
 14 15  1  0
 15 16  1  0
 16 17  2  0
 17 18  1  0
 18 19  1  0
 18 20  2  0
 20 21  1  0
 21 22  2  0
 21 23  1  0
 10  2  1  0
 23 16  1  0
  1 24  1  0
  1 25  1  0
  1 26  1  0
  3 27  1  0
  4 28  1  0
  5 29  1  0
 11 30  1  0
 14 31  1  0
 14 32  1  0
 19 33  1  0
 19 34  1  0
 20 35  1  0
 23 36  1  0
M  CHG  2   7   1   9  -1
M  END
>  <vina_affinity>  (1) 
-7.647

$$$$
dec_C28053345
     RDKit          3D

 50 55  0  0  0  0  0  0  0  0999 V2000
    0.0510   19.5610    9.5050 C   0  0  0  0  0  0  0  0  0  0  0  0
   -0.0480   19.2650   10.8930 O   0  0  0  0  0  0  0  0  0  0  0  0
    0.9660   19.7040   11.7070 C   0  0  0  0  0  0  0  0  0  0  0  0
    2.2560   19.1590   11.7210 C   0  0  0  0  0  0  0  0  0  0  0  0
    3.2270   19.6520   12.5950 C   0  0  0  0  0  0  0  0  0  0  0  0
    2.9210   20.6930   13.4610 C   0  0  0  0  0  0  0  0  0  0  0  0
    1.6410   21.2430   13.4580 C   0  0  0  0  0  0  0  0  0  0  0  0
    0.6450   20.7600   12.5850 C   0  0  0  0  0  0  0  0  0  0  0  0
   -0.7520   21.3690   12.6110 C   0  0  2  0  0  0  0  0  0  0  0  0
   -0.7270   22.5990   11.8520 O   0  0  0  0  0  0  0  0  0  0  0  0
   -0.7480   23.7750   12.5470 C   0  0  0  0  0  0  0  0  0  0  0  0
   -0.3460   24.9050   11.8280 C   0  0  0  0  0  0  0  0  0  0  0  0
   -0.3020   26.1510   12.4490 C   0  0  0  0  0  0  0  0  0  0  0  0
   -0.6600   26.2640   13.7900 C   0  0  0  0  0  0  0  0  0  0  0  0
   -1.0760   25.1360   14.5030 C   0  0  0  0  0  0  0  0  0  0  0  0
   -1.1430   23.8770   13.8840 C   0  0  0  0  0  0  0  0  0  0  0  0
   -1.6130   22.6670   14.5750 C   0  0  0  0  0  0  0  0  0  0  0  0
   -1.3660   21.4760   13.9880 C   0  0  0  0  0  0  0  0  0  0  0  0
   -1.8480   20.1770   14.6500 C   0  0  1  0  0  0  0  0  0  0  0  0
   -0.7270   19.2910   15.1810 C   0  0  0  0  0  0  0  0  0  0  0  0
   -0.3950   18.0700   14.5680 C   0  0  0  0  0  0  0  0  0  0  0  0
    0.6410   17.2800   15.0690 C   0  0  0  0  0  0  0  0  0  0  0  0
    1.3670   17.7030   16.1800 C   0  0  0  0  0  0  0  0  0  0  0  0
    1.0630   18.9170   16.7880 C   0  0  0  0  0  0  0  0  0  0  0  0
    0.0270   19.7090   16.2910 C   0  0  0  0  0  0  0  0  0  0  0  0
   -2.7770   20.4630   15.7420 N   0  0  0  0  0  0  0  0  0  0  0  0
   -3.6110   19.5680   16.2990 N   0  0  0  0  0  0  0  0  0  0  0  0
   -4.2810   20.2640   17.2110 N   0  0  0  0  0  0  0  0  0  0  0  0
   -3.9100   21.5970   17.2000 N   0  0  0  0  0  0  0  0  0  0  0  0
   -2.9930   21.7040   16.2700 C   0  0  0  0  0  0  0  0  0  0  0  0
   -2.3320   22.7620   15.7550 N   0  0  0  0  0  0  0  0  0  0  0  0
    0.3975   20.5969    9.3748 H   0  0  0  0  0  0  0  0  0  0  0  0
    0.7678   18.8726    9.0335 H   0  0  0  0  0  0  0  0  0  0  0  0
   -0.9357   19.4424    9.0335 H   0  0  0  0  0  0  0  0  0  0  0  0
    2.5067   18.3348   11.0370 H   0  0  0  0  0  0  0  0  0  0  0  0
    4.2363   19.2147   12.5973 H   0  0  0  0  0  0  0  0  0  0  0  0
    3.6870   21.0825   14.1476 H   0  0  0  0  0  0  0  0  0  0  0  0
    1.4039   22.0667   14.1474 H   0  0  0  0  0  0  0  0  0  0  0  0
   -1.4522   20.6761   12.1214 H   0  0  0  0  0  0  0  0  0  0  0  0
   -0.0638   24.8096   10.7691 H   0  0  0  0  0  0  0  0  0  0  0  0
    0.0136   27.0403   11.8836 H   0  0  0  0  0  0  0  0  0  0  0  0
   -0.6153   27.2431   14.2893 H   0  0  0  0  0  0  0  0  0  0  0  0
   -1.3545   25.2356   15.5625 H   0  0  0  0  0  0  0  0  0  0  0  0
   -2.3494   19.6193   13.8453 H   0  0  0  0  0  0  0  0  0  0  0  0
   -0.9575   17.7338   13.6845 H   0  0  0  0  0  0  0  0  0  0  0  0
    0.8844   16.3222   14.5859 H   0  0  0  0  0  0  0  0  0  0  0  0
    2.1803   17.0775   16.5765 H   0  0  0  0  0  0  0  0  0  0  0  0
    1.6403   19.2531   17.6620 H   0  0  0  0  0  0  0  0  0  0  0  0
   -0.2019   20.6708   16.7732 H   0  0  0  0  0  0  0  0  0  0  0  0
   -2.6600   23.6850   16.0220 H   0  0  0  0  0  0  0  0  0  0  0  0
  1  2  1  0
  2  3  1  0
  3  4  2  0
  4  5  1  0
  5  6  2  0
  6  7  1  0
  7  8  2  0
  8  9  1  0
  9 10  1  0
 10 11  1  0
 11 12  2  0
 12 13  1  0
 13 14  2  0
 14 15  1  0
 15 16  2  0
 16 17  1  0
 17 18  2  0
 18 19  1  0
 19 20  1  0
 20 21  2  0
 21 22  1  0
 22 23  2  0
 23 24  1  0
 24 25  2  0
 19 26  1  0
 26 27  1  0
 27 28  2  0
 28 29  1  0
 29 30  2  0
 30 31  1  0
  8  3  1  0
 18  9  1  0
 25 20  1  0
 30 26  1  0
 16 11  1  0
 31 17  1  0
  1 32  1  0
  1 33  1  0
  1 34  1  0
  4 35  1  0
  5 36  1  0
  6 37  1  0
  7 38  1  0
  9 39  1  6
 12 40  1  0
 13 41  1  0
 14 42  1  0
 15 43  1  0
 19 44  1  6
 21 45  1  0
 22 46  1  0
 23 47  1  0
 24 48  1  0
 25 49  1  0
 31 50  1  0
M  END
>  <vina_affinity>  (1) 
-7.049

$$$$
dec_C61673047
     RDKit          3D

 43 45  0  0  0  0  0  0  0  0999 V2000
   -0.3950   33.0670    8.5860 C   0  0  0  0  0  0  0  0  0  0  0  0
   -1.4010   32.2260    9.3770 C   0  0  0  0  0  0  0  0  0  0  0  0
   -1.8990   32.9870   10.6080 C   0  0  0  0  0  0  0  0  0  0  0  0
   -0.8220   30.8730    9.7540 C   0  0  0  0  0  0  0  0  0  0  0  0
   -0.1840   30.7090   10.9930 C   0  0  0  0  0  0  0  0  0  0  0  0
    0.3540   29.4740   11.3610 C   0  0  0  0  0  0  0  0  0  0  0  0
    0.2640   28.3770   10.4970 C   0  0  0  0  0  0  0  0  0  0  0  0
    0.8150   27.0950   10.8790 C   0  0  0  0  0  0  0  0  0  0  0  0
    0.2970   26.0640   11.7140 C   0  0  0  0  0  0  0  0  0  0  0  0
   -0.9960   26.0380   12.4800 C   0  0  0  0  0  0  0  0  0  0  0  0
   -1.3410   24.6140   12.9490 C   0  0  0  0  0  0  0  0  0  0  0  0
   -2.3120   24.6660   14.1170 C   0  0  0  0  0  0  0  0  0  0  0  0
   -1.7930   25.3540   15.2540 O   0  0  0  0  0  0  0  0  0  0  0  0
   -0.7760   26.3190   14.9740 C   0  0  0  0  0  0  0  0  0  0  0  0
   -1.0110   27.0350   13.6540 C   0  0  0  0  0  0  0  0  0  0  0  0
    1.1430   25.0240   11.7780 N   0  0  0  0  0  0  0  0  0  0  0  0
    2.2300   25.3750   10.9990 O   0  0  0  0  0  0  0  0  0  0  0  0
    2.0330   26.6080   10.4610 C   0  0  0  0  0  0  0  0  0  0  0  0
    2.9990   27.0880    9.6560 N   0  0  0  0  0  0  0  0  0  0  0  0
   -0.3690   28.5310    9.2600 C   0  0  0  0  0  0  0  0  0  0  0  0
   -0.9060   29.7690    8.8930 C   0  0  0  0  0  0  0  0  0  0  0  0
    0.2569   33.6120    9.2846 H   0  0  0  0  0  0  0  0  0  0  0  0
    0.2164   32.4075    7.9526 H   0  0  0  0  0  0  0  0  0  0  0  0
   -0.9357   33.7857    7.9526 H   0  0  0  0  0  0  0  0  0  0  0  0
   -2.2670   32.0367    8.7258 H   0  0  0  0  0  0  0  0  0  0  0  0
   -1.5616   32.4713   11.5192 H   0  0  0  0  0  0  0  0  0  0  0  0
   -1.4952   34.0101   10.5948 H   0  0  0  0  0  0  0  0  0  0  0  0
   -2.9982   33.0265   10.5948 H   0  0  0  0  0  0  0  0  0  0  0  0
   -0.1068   31.5629   11.6821 H   0  0  0  0  0  0  0  0  0  0  0  0
    0.8514   29.3629   12.3358 H   0  0  0  0  0  0  0  0  0  0  0  0
   -1.7805   26.3650   11.7817 H   0  0  0  0  0  0  0  0  0  0  0  0
   -1.8017   24.0596   12.1181 H   0  0  0  0  0  0  0  0  0  0  0  0
   -0.4184   24.1094   13.2719 H   0  0  0  0  0  0  0  0  0  0  0  0
   -3.2276   25.1787   13.7870 H   0  0  0  0  0  0  0  0  0  0  0  0
   -2.5055   23.6280   14.4254 H   0  0  0  0  0  0  0  0  0  0  0  0
   -0.7621   27.0638   15.7833 H   0  0  0  0  0  0  0  0  0  0  0  0
    0.1840   25.7866   14.9029 H   0  0  0  0  0  0  0  0  0  0  0  0
   -1.9881   27.5392   13.6863 H   0  0  0  0  0  0  0  0  0  0  0  0
   -0.2058   27.7691   13.5031 H   0  0  0  0  0  0  0  0  0  0  0  0
    3.9120   26.6430    9.6840 H   0  0  0  0  0  0  0  0  0  0  0  0
    3.0480   28.0970    9.5490 H   0  0  0  0  0  0  0  0  0  0  0  0
   -0.4449   27.6753    8.5729 H   0  0  0  0  0  0  0  0  0  0  0  0
   -1.4006   29.8783    7.9166 H   0  0  0  0  0  0  0  0  0  0  0  0
  1  2  1  0
  2  3  1  0
  2  4  1  0
  4  5  2  0
  5  6  1  0
  6  7  2  0
  7  8  1  0
  8  9  1  0
  9 10  1  0
 10 11  1  0
 11 12  1  0
 12 13  1  0
 13 14  1  0
 14 15  1  0
  9 16  2  0
 16 17  1  0
 17 18  1  0
 18 19  1  0
  7 20  1  0
 20 21  2  0
 21  4  1  0
 18  8  2  0
 15 10  1  0
  1 22  1  0
  1 23  1  0
  1 24  1  0
  2 25  1  0
  3 26  1  0
  3 27  1  0
  3 28  1  0
  5 29  1  0
  6 30  1  0
 10 31  1  0
 11 32  1  0
 11 33  1  0
 12 34  1  0
 12 35  1  0
 14 36  1  0
 14 37  1  0
 15 38  1  0
 15 39  1  0
 19 40  1  0
 19 41  1  0
 20 42  1  0
 21 43  1  0
M  END
>  <vina_affinity>  (1) 
-7.997

$$$$
dec_C14307795
     RDKit          3D

 48 49  0  0  0  0  0  0  0  0999 V2000
   -5.1290   25.9430   13.8360 C   0  0  0  0  0  0  0  0  0  0  0  0
   -3.9730   25.4660   14.6730 C   0  0  0  0  0  0  0  0  0  0  0  0
   -4.1090   25.1580   15.8510 O   0  0  0  0  0  0  0  0  0  0  0  0
   -2.7820   25.3960   13.9840 N   0  0  0  0  0  0  0  0  0  0  0  0
   -1.5780   24.8600   14.6110 C   0  0  2  0  0  0  0  0  0  0  0  0
   -0.3950   25.8260   14.4850 C   0  0  0  0  0  0  0  0  0  0  0  0
   -0.7200   27.0390   13.6430 C   0  0  0  0  0  0  0  0  0  0  0  0
   -1.5250   27.9130   13.9460 O   0  0  0  0  0  0  0  0  0  0  0  0
    0.0110   27.0800   12.4660 N   0  0  0  0  0  0  0  0  0  0  0  0
   -0.3810   28.0380   11.5050 N   0  0  0  0  0  0  0  0  0  0  0  0
   -0.9630   27.6360   10.3290 C   0  0  0  0  0  0  0  0  0  0  0  0
   -1.0960   26.0360    9.8380 S   0  0  0  0  0  0  0  0  0  0  0  0
   -1.5000   28.5970    9.5220 N   0  0  0  0  0  0  0  0  0  0  0  0
   -1.3340   30.0020    9.4900 C   0  0  0  0  0  0  0  0  0  0  0  0
   -2.0610   30.8620   10.3260 C   0  0  0  0  0  0  0  0  0  0  0  0
   -1.8740   32.2510   10.2850 C   0  0  0  0  0  0  0  0  0  0  0  0
   -2.6450   33.1470   11.2110 C   0  0  0  0  0  0  0  0  0  0  0  0
   -0.9130   32.7820    9.4260 C   0  0  0  0  0  0  0  0  0  0  0  0
   -0.1600   31.9390    8.6110 C   0  0  0  0  0  0  0  0  0  0  0  0
   -0.3580   30.5480    8.6330 C   0  0  0  0  0  0  0  0  0  0  0  0
    0.4840   29.6930    7.7230 C   0  0  0  0  0  0  0  0  0  0  0  0
   -1.2460   23.5570   13.9100 C   0  0  0  0  0  0  0  0  0  0  0  0
   -0.7740   23.3460   12.6250 C   0  0  0  0  0  0  0  0  0  0  0  0
   -0.5710   21.9660   12.3370 C   0  0  0  0  0  0  0  0  0  0  0  0
   -0.8880   21.1640   13.4090 C   0  0  0  0  0  0  0  0  0  0  0  0
   -1.4220   22.0710   14.7540 S   0  0  0  0  0  0  0  0  0  0  0  0
   -5.9439   26.2793   14.4939 H   0  0  0  0  0  0  0  0  0  0  0  0
   -4.8015   26.7795   13.2011 H   0  0  0  0  0  0  0  0  0  0  0  0
   -5.4866   25.1190   13.2011 H   0  0  0  0  0  0  0  0  0  0  0  0
   -2.8180   25.4440   12.9760 H   0  0  0  0  0  0  0  0  0  0  0  0
   -1.7609   24.7075   15.6849 H   0  0  0  0  0  0  0  0  0  0  0  0
   -0.1071   26.1632   15.4917 H   0  0  0  0  0  0  0  0  0  0  0  0
    0.4239   25.2857   13.9876 H   0  0  0  0  0  0  0  0  0  0  0  0
    0.4520   26.2410   12.0930 H   0  0  0  0  0  0  0  0  0  0  0  0
   -0.7520   28.8950   11.9240 H   0  0  0  0  0  0  0  0  0  0  0  0
   -2.0960   28.2070    8.8020 H   0  0  0  0  0  0  0  0  0  0  0  0
   -2.7934   30.4379   11.0287 H   0  0  0  0  0  0  0  0  0  0  0  0
   -2.4161   32.8810   12.2535 H   0  0  0  0  0  0  0  0  0  0  0  0
   -2.3611   34.1940   11.0289 H   0  0  0  0  0  0  0  0  0  0  0  0
   -3.7226   33.0224   11.0289 H   0  0  0  0  0  0  0  0  0  0  0  0
   -0.7487   33.8691    9.3914 H   0  0  0  0  0  0  0  0  0  0  0  0
    0.5997   32.3683    7.9413 H   0  0  0  0  0  0  0  0  0  0  0  0
    1.1287   29.0383    8.3278 H   0  0  0  0  0  0  0  0  0  0  0  0
   -0.1708   29.0779    7.0883 H   0  0  0  0  0  0  0  0  0  0  0  0
    1.1091   30.3383    7.0883 H   0  0  0  0  0  0  0  0  0  0  0  0
   -0.5776   24.1551   11.9061 H   0  0  0  0  0  0  0  0  0  0  0  0
   -0.2043   21.5864   11.3719 H   0  0  0  0  0  0  0  0  0  0  0  0
   -0.8070   20.0670   13.4008 H   0  0  0  0  0  0  0  0  0  0  0  0
  1  2  1  0
  2  3  2  0
  2  4  1  0
  4  5  1  0
  5  6  1  0
  6  7  1  0
  7  8  2  0
  7  9  1  0
  9 10  1  0
 10 11  1  0
 11 12  2  0
 11 13  1  0
 13 14  1  0
 14 15  2  0
 15 16  1  0
 16 17  1  0
 16 18  2  0
 18 19  1  0
 19 20  2  0
 20 21  1  0
  5 22  1  0
 22 23  2  0
 23 24  1  0
 24 25  2  0
 25 26  1  0
 20 14  1  0
 26 22  1  0
  1 27  1  0
  1 28  1  0
  1 29  1  0
  4 30  1  0
  5 31  1  1
  6 32  1  0
  6 33  1  0
  9 34  1  0
 10 35  1  0
 13 36  1  0
 15 37  1  0
 17 38  1  0
 17 39  1  0
 17 40  1  0
 18 41  1  0
 19 42  1  0
 21 43  1  0
 21 44  1  0
 21 45  1  0
 23 46  1  0
 24 47  1  0
 25 48  1  0
M  END
>  <vina_affinity>  (1) 
-8.075

$$$$
dec_C21258700
     RDKit          3D

 52 56  0  0  0  0  0  0  0  0999 V2000
   11.2320   25.1940    4.0750 C   0  0  0  0  0  0  0  0  0  0  0  0
   11.2030   24.4200    5.3840 C   0  0  0  0  0  0  0  0  0  0  0  0
    9.7950   24.1120    5.8220 C   0  0  0  0  0  0  0  0  0  0  0  0
    9.1180   24.9640    6.6980 C   0  0  0  0  0  0  0  0  0  0  0  0
    7.8130   24.6730    7.1020 C   0  0  0  0  0  0  0  0  0  0  0  0
    7.1470   23.5210    6.6460 C   0  0  0  0  0  0  0  0  0  0  0  0
    5.7050   23.2870    7.0970 C   0  0  2  0  0  0  0  0  0  0  0  0
    4.7170   22.8520    6.0100 C   0  0  0  0  0  0  0  0  0  0  0  0
    4.2500   23.9910    5.1260 C   0  0  0  0  0  0  0  0  0  0  0  0
    3.7130   23.7630    4.0420 O   0  0  0  0  0  0  0  0  0  0  0  0
    4.3920   25.3940    5.6110 C   0  0  0  0  0  0  0  0  0  0  0  0
    4.7460   25.6160    6.8870 C   0  0  0  0  0  0  0  0  0  0  0  0
    5.1390   24.5150    7.8370 C   0  0  0  0  0  0  0  0  0  0  0  0
    4.8320   26.9040    7.3580 N   0  0  0  0  0  0  0  0  0  0  0  0
    4.4580   28.0310    6.6720 C   0  0  0  0  0  0  0  0  0  0  0  0
    4.6220   29.1450    7.1610 O   0  0  0  0  0  0  0  0  0  0  0  0
    3.7510   27.8180    5.3530 C   0  0  0  0  0  0  0  0  0  0  0  0
    4.1450   26.5190    4.6370 C   0  0  1  0  0  0  0  0  0  0  0  0
    5.3420   26.6890    3.6990 C   0  0  0  0  0  0  0  0  0  0  0  0
    6.5900   26.1240    4.0670 C   0  0  0  0  0  0  0  0  0  0  0  0
    7.7300   26.2940    3.2750 C   0  0  0  0  0  0  0  0  0  0  0  0
    7.6050   27.0360    2.1240 C   0  0  0  0  0  0  0  0  0  0  0  0
    6.4060   27.5940    1.7540 C   0  0  0  0  0  0  0  0  0  0  0  0
    5.2630   27.4430    2.5130 C   0  0  0  0  0  0  0  0  0  0  0  0
    6.4980   28.2990    0.5930 O   0  0  0  0  0  0  0  0  0  0  0  0
    7.8900   28.1110    0.2720 C   0  0  0  0  0  0  0  0  0  0  0  0
    8.6020   27.3170    1.2440 O   0  0  0  0  0  0  0  0  0  0  0  0
    7.8460   22.6600    5.7890 C   0  0  0  0  0  0  0  0  0  0  0  0
    9.1510   22.9540    5.3790 C   0  0  0  0  0  0  0  0  0  0  0  0
   11.2724   26.2725    4.2876 H   0  0  0  0  0  0  0  0  0  0  0  0
   12.1198   24.9010    3.4954 H   0  0  0  0  0  0  0  0  0  0  0  0
   10.3248   24.9683    3.4954 H   0  0  0  0  0  0  0  0  0  0  0  0
   11.7490   23.4745    5.2505 H   0  0  0  0  0  0  0  0  0  0  0  0
   11.6732   25.0427    6.1593 H   0  0  0  0  0  0  0  0  0  0  0  0
    9.6162   25.8705    7.0723 H   0  0  0  0  0  0  0  0  0  0  0  0
    7.2960   25.3580    7.7901 H   0  0  0  0  0  0  0  0  0  0  0  0
    5.7942   22.4257    7.7754 H   0  0  0  0  0  0  0  0  0  0  0  0
    5.2065   22.0978    5.3764 H   0  0  0  0  0  0  0  0  0  0  0  0
    3.8281   22.4542    6.5214 H   0  0  0  0  0  0  0  0  0  0  0  0
    5.9054   24.8981    8.5268 H   0  0  0  0  0  0  0  0  0  0  0  0
    4.2368   24.1976    8.3804 H   0  0  0  0  0  0  0  0  0  0  0  0
    5.2200   27.0830    8.2780 H   0  0  0  0  0  0  0  0  0  0  0  0
    2.6674   27.7945    5.5410 H   0  0  0  0  0  0  0  0  0  0  0  0
    4.0484   28.6475    4.6946 H   0  0  0  0  0  0  0  0  0  0  0  0
    3.2805   26.2535    4.0108 H   0  0  0  0  0  0  0  0  0  0  0  0
    6.6627   25.5392    4.9958 H   0  0  0  0  0  0  0  0  0  0  0  0
    8.6940   25.8493    3.5630 H   0  0  0  0  0  0  0  0  0  0  0  0
    4.3135   27.9008    2.1987 H   0  0  0  0  0  0  0  0  0  0  0  0
    7.9576   27.6092   -0.7045 H   0  0  0  0  0  0  0  0  0  0  0  0
    8.3574   29.1067    0.2622 H   0  0  0  0  0  0  0  0  0  0  0  0
    7.3611   21.7389    5.4333 H   0  0  0  0  0  0  0  0  0  0  0  0
    9.6759   22.2657    4.7002 H   0  0  0  0  0  0  0  0  0  0  0  0
  1  2  1  0
  2  3  1  0
  3  4  2  0
  4  5  1  0
  5  6  2  0
  6  7  1  0
  7  8  1  0
  8  9  1  0
  9 10  2  0
  9 11  1  0
 11 12  2  0
 12 13  1  0
 12 14  1  0
 14 15  1  0
 15 16  2  0
 15 17  1  0
 17 18  1  0
 18 19  1  0
 19 20  2  0
 20 21  1  0
 21 22  2  0
 22 23  1  0
 23 24  2  0
 23 25  1  0
 25 26  1  0
 26 27  1  0
  6 28  1  0
 28 29  2  0
 29  3  1  0
 13  7  1  0
 24 19  1  0
 18 11  1  0
 27 22  1  0
  1 30  1  0
  1 31  1  0
  1 32  1  0
  2 33  1  0
  2 34  1  0
  4 35  1  0
  5 36  1  0
  7 37  1  1
  8 38  1  0
  8 39  1  0
 13 40  1  0
 13 41  1  0
 14 42  1  0
 17 43  1  0
 17 44  1  0
 18 45  1  6
 20 46  1  0
 21 47  1  0
 24 48  1  0
 26 49  1  0
 26 50  1  0
 28 51  1  0
 29 52  1  0
M  END
>  <vina_affinity>  (1) 
-7.059

$$$$
dec_C19959455
     RDKit          3D

 49 52  0  0  0  0  0  0  0  0999 V2000
    0.2820   20.9690   11.2450 C   0  0  0  0  0  0  0  0  0  0  0  0
    1.6110   21.3300   10.8910 O   0  0  0  0  0  0  0  0  0  0  0  0
    1.8850   22.6660   10.8050 C   0  0  0  0  0  0  0  0  0  0  0  0
    1.4770   23.4210   11.9050 C   0  0  0  0  0  0  0  0  0  0  0  0
    1.7070   24.8030   11.9610 C   0  0  0  0  0  0  0  0  0  0  0  0
    2.3520   25.4660   10.9170 C   0  0  0  0  0  0  0  0  0  0  0  0
    2.6190   26.8490   10.8980 N   0  0  0  0  0  0  0  0  0  0  0  0
    2.5800   27.8180    9.8880 C   0  0  0  0  0  0  0  0  0  0  0  0
    3.6860   28.0780    9.1450 N   0  0  0  0  0  0  0  0  0  0  0  0
    3.6440   29.0130    8.1880 C   0  0  0  0  0  0  0  0  0  0  0  0
    2.6050   29.7700    7.8450 N   0  0  0  0  0  0  0  0  0  0  0  0
    1.5190   29.5060    8.5860 C   0  0  0  0  0  0  0  0  0  0  0  0
    0.0800   30.3750    8.3020 S   0  0  0  0  0  0  0  0  0  0  0  0
   -0.7390   29.5330    9.5370 C   0  0  0  0  0  0  0  0  0  0  0  0
    0.0670   28.5990   10.1570 C   0  0  0  0  0  0  0  0  0  0  0  0
   -0.4830   27.7930   11.2380 C   0  0  0  0  0  0  0  0  0  0  0  0
   -0.4020   28.2940   12.5460 C   0  0  0  0  0  0  0  0  0  0  0  0
   -0.8980   27.5540   13.6190 C   0  0  0  0  0  0  0  0  0  0  0  0
   -1.4810   26.3020   13.4010 C   0  0  0  0  0  0  0  0  0  0  0  0
   -1.9690   25.4790   14.5570 C   0  0  0  0  0  0  0  0  0  0  0  0
   -1.5470   25.7970   12.0960 C   0  0  0  0  0  0  0  0  0  0  0  0
   -1.0680   26.5360   11.0010 C   0  0  0  0  0  0  0  0  0  0  0  0
   -1.1630   25.9430    9.6220 C   0  0  0  0  0  0  0  0  0  0  0  0
    1.4090   28.5720    9.6090 C   0  0  0  0  0  0  0  0  0  0  0  0
    2.7170   24.6920    9.7970 C   0  0  0  0  0  0  0  0  0  0  0  0
    3.3550   25.3060    8.7410 O   0  0  0  0  0  0  0  0  0  0  0  0
    4.3560   24.4340    8.2110 C   0  0  0  0  0  0  0  0  0  0  0  0
    2.5160   23.3080    9.7450 C   0  0  0  0  0  0  0  0  0  0  0  0
    0.1885   20.9436   12.3407 H   0  0  0  0  0  0  0  0  0  0  0  0
   -0.4207   21.7088   10.8341 H   0  0  0  0  0  0  0  0  0  0  0  0
    0.0501   19.9753   10.8341 H   0  0  0  0  0  0  0  0  0  0  0  0
    0.9662   22.9236   12.7426 H   0  0  0  0  0  0  0  0  0  0  0  0
    1.3739   25.3726   12.8411 H   0  0  0  0  0  0  0  0  0  0  0  0
    2.7700   27.2080   11.8340 H   0  0  0  0  0  0  0  0  0  0  0  0
    4.5731   29.1736    7.6214 H   0  0  0  0  0  0  0  0  0  0  0  0
   -1.7895   29.7131    9.8090 H   0  0  0  0  0  0  0  0  0  0  0  0
    0.0561   29.2777   12.7265 H   0  0  0  0  0  0  0  0  0  0  0  0
   -0.8303   27.9567   14.6404 H   0  0  0  0  0  0  0  0  0  0  0  0
   -1.6808   25.9651   15.5007 H   0  0  0  0  0  0  0  0  0  0  0  0
   -3.0645   25.3924   14.5088 H   0  0  0  0  0  0  0  0  0  0  0  0
   -1.5194   24.4762   14.5088 H   0  0  0  0  0  0  0  0  0  0  0  0
   -1.9827   24.8016   11.9249 H   0  0  0  0  0  0  0  0  0  0  0  0
   -1.3366   24.8596    9.6999 H   0  0  0  0  0  0  0  0  0  0  0  0
   -1.9978   26.4099    9.0788 H   0  0  0  0  0  0  0  0  0  0  0  0
   -0.2241   26.1258    9.0788 H   0  0  0  0  0  0  0  0  0  0  0  0
    4.9027   23.9577    9.0382 H   0  0  0  0  0  0  0  0  0  0  0  0
    3.8779   23.6594    7.5935 H   0  0  0  0  0  0  0  0  0  0  0  0
    5.0577   25.0138    7.5935 H   0  0  0  0  0  0  0  0  0  0  0  0
    2.8549   22.7318    8.8714 H   0  0  0  0  0  0  0  0  0  0  0  0
  1  2  1  0
  2  3  1  0
  3  4  2  0
  4  5  1  0
  5  6  2  0
  6  7  1  0
  7  8  1  0
  8  9  2  0
  9 10  1  0
 10 11  2  0
 11 12  1  0
 12 13  1  0
 13 14  1  0
 14 15  2  0
 15 16  1  0
 16 17  2  0
 17 18  1  0
 18 19  2  0
 19 20  1  0
 19 21  1  0
 21 22  2  0
 22 23  1  0
 15 24  1  0
  6 25  1  0
 25 26  1  0
 26 27  1  0
 25 28  2  0
 28  3  1  0
 24  8  1  0
 24 12  2  0
 22 16  1  0
  1 29  1  0
  1 30  1  0
  1 31  1  0
  4 32  1  0
  5 33  1  0
  7 34  1  0
 10 35  1  0
 14 36  1  0
 17 37  1  0
 18 38  1  0
 20 39  1  0
 20 40  1  0
 20 41  1  0
 21 42  1  0
 23 43  1  0
 23 44  1  0
 23 45  1  0
 27 46  1  0
 27 47  1  0
 27 48  1  0
 28 49  1  0
M  END
>  <vina_affinity>  (1) 
-7.778

$$$$
dec_C12305896
     RDKit          3D

 50 54  0  0  0  0  0  0  0  0999 V2000
    0.7510   24.2530   12.0730 C   0  0  0  0  0  0  0  0  0  0  0  0
   -0.5290   25.0140   12.3180 N   0  0  1  0  0  0  0  0  0  0  0  0
   -1.2520   25.3430   11.0290 C   0  0  0  0  0  0  0  0  0  0  0  0
   -1.4400   26.7950   10.8400 C   0  0  0  0  0  0  0  0  0  0  0  0
   -0.7490   27.7830   10.1830 C   0  0  0  0  0  0  0  0  0  0  0  0
   -1.5240   28.9640   10.3770 C   0  0  0  0  0  0  0  0  0  0  0  0
   -1.2630   30.3200    9.8870 C   0  0  0  0  0  0  0  0  0  0  0  0
   -1.9280   31.4210   10.4490 C   0  0  0  0  0  0  0  0  0  0  0  0
   -1.6820   32.7180    9.9900 C   0  0  0  0  0  0  0  0  0  0  0  0
   -0.7700   32.9330    8.9610 C   0  0  0  0  0  0  0  0  0  0  0  0
   -0.1030   31.8520    8.3900 C   0  0  0  0  0  0  0  0  0  0  0  0
   -0.3470   30.5530    8.8480 C   0  0  0  0  0  0  0  0  0  0  0  0
   -2.6100   28.6690   11.1110 N   0  0  0  0  0  0  0  0  0  0  0  0
   -2.5480   27.3300   11.4040 O   0  0  0  0  0  0  0  0  0  0  0  0
   -1.4250   24.3290   13.3270 C   0  0  0  0  0  0  0  0  0  0  0  0
   -1.9110   25.2600   14.3710 C   0  0  0  0  0  0  0  0  0  0  0  0
   -1.5050   26.5680   14.5640 C   0  0  0  0  0  0  0  0  0  0  0  0
   -2.2700   27.0680   15.5790 N   0  0  0  0  0  0  0  0  0  0  0  0
   -3.1710   26.1900   16.0250 N   0  0  0  0  0  0  0  0  0  0  0  0
   -2.9220   25.0610   15.3560 C   0  0  0  0  0  0  0  0  0  0  0  0
   -3.7630   23.7680   15.6770 C   0  0  0  0  0  0  0  0  0  0  0  0
   -5.1370   23.6140   15.6910 C   0  0  0  0  0  0  0  0  0  0  0  0
   -5.4090   22.2720   16.0720 C   0  0  0  0  0  0  0  0  0  0  0  0
   -6.5640   21.4950   16.2700 C   0  0  0  0  0  0  0  0  0  0  0  0
   -6.4110   20.1540   16.6560 C   0  0  0  0  0  0  0  0  0  0  0  0
   -5.1420   19.5960   16.8360 C   0  0  0  0  0  0  0  0  0  0  0  0
   -3.9830   20.3520   16.6340 C   0  0  0  0  0  0  0  0  0  0  0  0
   -4.1680   21.6780   16.2530 C   0  0  0  0  0  0  0  0  0  0  0  0
   -3.1800   22.5730   16.0030 O   0  0  0  0  0  0  0  0  0  0  0  0
    1.2067   23.9821   13.0368 H   0  0  0  0  0  0  0  0  0  0  0  0
    0.5306   23.3391   11.5018 H   0  0  0  0  0  0  0  0  0  0  0  0
    1.4486   24.8831   11.5018 H   0  0  0  0  0  0  0  0  0  0  0  0
   -0.2430   25.9090   12.7330 H   0  0  0  0  0  0  0  0  0  0  0  0
   -0.6650   24.9507   10.1855 H   0  0  0  0  0  0  0  0  0  0  0  0
   -2.2490   24.8809   11.0781 H   0  0  0  0  0  0  0  0  0  0  0  0
    0.1958   27.6849    9.6283 H   0  0  0  0  0  0  0  0  0  0  0  0
   -2.6522   31.2609   11.2613 H   0  0  0  0  0  0  0  0  0  0  0  0
   -2.2100   33.5702   10.4428 H   0  0  0  0  0  0  0  0  0  0  0  0
   -0.5765   33.9538    8.5997 H   0  0  0  0  0  0  0  0  0  0  0  0
    0.6179   32.0202    7.5764 H   0  0  0  0  0  0  0  0  0  0  0  0
    0.1838   29.7055    8.3899 H   0  0  0  0  0  0  0  0  0  0  0  0
   -2.2923   23.9052   12.7996 H   0  0  0  0  0  0  0  0  0  0  0  0
   -0.8344   23.5452   13.8238 H   0  0  0  0  0  0  0  0  0  0  0  0
   -0.7195   27.1014   14.0086 H   0  0  0  0  0  0  0  0  0  0  0  0
   -2.2490   27.9950   15.9970 H   0  0  0  0  0  0  0  0  0  0  0  0
   -5.8819   24.3872   15.4515 H   0  0  0  0  0  0  0  0  0  0  0  0
   -7.5648   21.9281   16.1257 H   0  0  0  0  0  0  0  0  0  0  0  0
   -7.3038   19.5325   16.8194 H   0  0  0  0  0  0  0  0  0  0  0  0
   -5.0535   18.5432   17.1421 H   0  0  0  0  0  0  0  0  0  0  0  0
   -2.9795   19.9221   16.7689 H   0  0  0  0  0  0  0  0  0  0  0  0
  1  2  1  0
  2  3  1  0
  3  4  1  0
  4  5  2  0
  5  6  1  0
  6  7  1  0
  7  8  2  0
  8  9  1  0
  9 10  2  0
 10 11  1  0
 11 12  2  0
  6 13  2  0
 13 14  1  0
  2 15  1  0
 15 16  1  0
 16 17  2  0
 17 18  1  0
 18 19  1  0
 19 20  2  0
 20 21  1  0
 21 22  2  0
 22 23  1  0
 23 24  2  0
 24 25  1  0
 25 26  2  0
 26 27  1  0
 27 28  2  0
 28 29  1  0
 14  4  1  0
 20 16  1  0
 29 21  1  0
 12  7  1  0
 28 23  1  0
  1 30  1  0
  1 31  1  0
  1 32  1  0
  2 33  1  1
  3 34  1  0
  3 35  1  0
  5 36  1  0
  8 37  1  0
  9 38  1  0
 10 39  1  0
 11 40  1  0
 12 41  1  0
 15 42  1  0
 15 43  1  0
 17 44  1  0
 18 45  1  0
 22 46  1  0
 24 47  1  0
 25 48  1  0
 26 49  1  0
 27 50  1  0
M  CHG  1   2   1
M  END
>  <vina_affinity>  (1) 
-8.919

$$$$
dec_C04519362
     RDKit          3D

 35 36  0  0  0  0  0  0  0  0999 V2000
   -1.0730   33.0680    9.6480 C   0  0  0  0  0  0  0  0  0  0  0  0
   -2.2710   32.6070   10.4590 C   0  0  0  0  0  0  0  0  0  0  0  0
   -2.5230   31.1200   10.3170 C   0  0  0  0  0  0  0  0  0  0  0  0
   -3.2980   30.6260    9.5050 O   0  0  0  0  0  0  0  0  0  0  0  0
   -1.7780   30.3590   11.1910 N   0  0  0  0  0  0  0  0  0  0  0  0
   -1.9810   28.9230   11.3350 C   0  0  0  0  0  0  0  0  0  0  0  0
   -0.9770   28.0200   10.6080 C   0  0  2  0  0  0  0  0  0  0  0  0
   -1.0180   26.6240   11.1460 C   0  0  0  0  0  0  0  0  0  0  0  0
   -1.0480   25.3830   10.5390 C   0  0  0  0  0  0  0  0  0  0  0  0
   -1.0790   24.4280   11.5850 C   0  0  0  0  0  0  0  0  0  0  0  0
   -1.0730   25.1430   12.7580 C   0  0  0  0  0  0  0  0  0  0  0  0
   -1.0430   26.4750   12.5020 O   0  0  0  0  0  0  0  0  0  0  0  0
    0.7120   28.5940   10.7920 S   0  0  0  0  0  0  0  0  0  0  0  0
    0.7940   29.6460   11.7870 O   0  0  0  0  0  0  0  0  0  0  0  0
    1.6200   27.4600   10.8110 O   0  0  0  0  0  0  0  0  0  0  0  0
    1.0710   29.3500    9.2050 C   0  0  0  0  0  0  0  0  0  0  0  0
    0.2640   30.0640    8.3360 C   0  0  0  0  0  0  0  0  0  0  0  0
    0.9610   30.4850    7.1680 C   0  0  0  0  0  0  0  0  0  0  0  0
    2.2740   30.0690    7.1750 C   0  0  0  0  0  0  0  0  0  0  0  0
    2.6570   29.1790    8.5850 S   0  0  0  0  0  0  0  0  0  0  0  0
   -0.2667   33.3783   10.3289 H   0  0  0  0  0  0  0  0  0  0  0  0
   -0.7196   32.2416    9.0138 H   0  0  0  0  0  0  0  0  0  0  0  0
   -1.3647   33.9181    9.0138 H   0  0  0  0  0  0  0  0  0  0  0  0
   -2.0894   32.8354   11.5196 H   0  0  0  0  0  0  0  0  0  0  0  0
   -3.1578   33.1365   10.0804 H   0  0  0  0  0  0  0  0  0  0  0  0
   -1.2840   30.8380   11.9360 H   0  0  0  0  0  0  0  0  0  0  0  0
   -1.9324   28.6833   12.4075 H   0  0  0  0  0  0  0  0  0  0  0  0
   -2.9550   28.7155   10.8677 H   0  0  0  0  0  0  0  0  0  0  0  0
   -1.2710   28.0470    9.5484 H   0  0  0  0  0  0  0  0  0  0  0  0
   -1.0478   25.1774    9.4584 H   0  0  0  0  0  0  0  0  0  0  0  0
   -1.1031   23.3334   11.4791 H   0  0  0  0  0  0  0  0  0  0  0  0
   -1.0901   24.6979   13.7638 H   0  0  0  0  0  0  0  0  0  0  0  0
   -0.7973   30.2818    8.5265 H   0  0  0  0  0  0  0  0  0  0  0  0
    0.5054   31.0722    6.3571 H   0  0  0  0  0  0  0  0  0  0  0  0
    2.9915   30.2836    6.3693 H   0  0  0  0  0  0  0  0  0  0  0  0
  1  2  1  0
  2  3  1  0
  3  4  2  0
  3  5  1  0
  5  6  1  0
  6  7  1  0
  7  8  1  0
  8  9  2  0
  9 10  1  0
 10 11  2  0
 11 12  1  0
  7 13  1  0
 13 14  2  0
 13 15  2  0
 13 16  1  0
 16 17  2  0
 17 18  1  0
 18 19  2  0
 19 20  1  0
 12  8  1  0
 20 16  1  0
  1 21  1  0
  1 22  1  0
  1 23  1  0
  2 24  1  0
  2 25  1  0
  5 26  1  0
  6 27  1  0
  6 28  1  0
  7 29  1  6
  9 30  1  0
 10 31  1  0
 11 32  1  0
 17 33  1  0
 18 34  1  0
 19 35  1  0
M  END
>  <vina_affinity>  (1) 
-6.482

$$$$
dec_C40577415
     RDKit          3D

 36 37  0  0  0  0  0  0  0  0999 V2000
   -3.7700   27.1000   17.2200 C   0  0  0  0  0  0  0  0  0  0  0  0
   -3.1840   26.5580   15.9790 C   0  0  0  0  0  0  0  0  0  0  0  0
   -2.2000   27.2960   15.3840 O   0  0  0  0  0  0  0  0  0  0  0  0
   -1.8100   26.6130   14.2620 C   0  0  0  0  0  0  0  0  0  0  0  0
   -0.7360   27.2340   13.4550 C   0  0  0  0  0  0  0  0  0  0  0  0
   -1.2550   28.4440   12.8580 N   0  0  0  0  0  0  0  0  0  0  0  0
   -1.6520   28.4460   11.5520 C   0  0  0  0  0  0  0  0  0  0  0  0
   -1.5250   27.5000   10.7860 O   0  0  0  0  0  0  0  0  0  0  0  0
   -2.2160   29.6500   11.2120 N   0  0  0  0  0  0  0  0  0  0  0  0
   -2.5550   29.9350    9.8300 C   0  0  1  0  0  0  0  0  0  0  0  0
   -3.9900   30.4430    9.7300 C   0  0  0  0  0  0  0  0  0  0  0  0
   -1.5690   30.9300    9.3060 C   0  0  0  0  0  0  0  0  0  0  0  0
   -1.5210   32.3080    9.3390 C   0  0  0  0  0  0  0  0  0  0  0  0
   -0.3540   32.6880    8.6360 C   0  0  0  0  0  0  0  0  0  0  0  0
    0.2330   31.5200    8.2110 C   0  0  0  0  0  0  0  0  0  0  0  0
   -0.4950   30.4470    8.6100 O   0  0  0  0  0  0  0  0  0  0  0  0
   -2.5330   25.4460   14.1410 C   0  0  0  0  0  0  0  0  0  0  0  0
   -3.4150   25.4150   15.2470 C   0  0  0  0  0  0  0  0  0  0  0  0
   -4.4480   24.2850   15.5660 C   0  0  0  0  0  0  0  0  0  0  0  0
   -4.1280   23.4800   16.4940 O   0  0  0  0  0  0  0  0  0  0  0  0
   -5.5120   24.2710   14.8750 O   0  0  0  0  0  0  0  0  0  0  0  0
   -3.2753   26.6424   18.0894 H   0  0  0  0  0  0  0  0  0  0  0  0
   -3.6259   28.1902   17.2479 H   0  0  0  0  0  0  0  0  0  0  0  0
   -4.8456   26.8715   17.2479 H   0  0  0  0  0  0  0  0  0  0  0  0
    0.1209   27.4764   14.1007 H   0  0  0  0  0  0  0  0  0  0  0  0
   -0.4027   26.5386   12.6706 H   0  0  0  0  0  0  0  0  0  0  0  0
   -1.7960   29.0230   13.4850 H   0  0  0  0  0  0  0  0  0  0  0  0
   -1.8340   30.4280   11.7310 H   0  0  0  0  0  0  0  0  0  0  0  0
   -2.5006   29.0218    9.2192 H   0  0  0  0  0  0  0  0  0  0  0  0
   -4.3990   30.5878   10.7408 H   0  0  0  0  0  0  0  0  0  0  0  0
   -4.0031   31.4004    9.1885 H   0  0  0  0  0  0  0  0  0  0  0  0
   -4.6026   29.7071    9.1885 H   0  0  0  0  0  0  0  0  0  0  0  0
   -2.2481   32.9800    9.8183 H   0  0  0  0  0  0  0  0  0  0  0  0
    0.0103   33.7116    8.4641 H   0  0  0  0  0  0  0  0  0  0  0  0
    1.1641   31.4632    7.6281 H   0  0  0  0  0  0  0  0  0  0  0  0
   -2.4427   24.6915   13.3457 H   0  0  0  0  0  0  0  0  0  0  0  0
  1  2  1  0
  2  3  1  0
  3  4  1  0
  4  5  1  0
  5  6  1  0
  6  7  1  0
  7  8  2  0
  7  9  1  0
  9 10  1  0
 10 11  1  0
 10 12  1  0
 12 13  2  0
 13 14  1  0
 14 15  2  0
 15 16  1  0
  4 17  2  0
 17 18  1  0
 18 19  1  0
 19 20  2  0
 19 21  1  0
 18  2  2  0
 16 12  1  0
  1 22  1  0
  1 23  1  0
  1 24  1  0
  5 25  1  0
  5 26  1  0
  6 27  1  0
  9 28  1  0
 10 29  1  6
 11 30  1  0
 11 31  1  0
 11 32  1  0
 13 33  1  0
 14 34  1  0
 15 35  1  0
 17 36  1  0
M  CHG  1  21  -1
M  END
>  <vina_affinity>  (1) 
-7.063

$$$$
dec_C56161060
     RDKit          3D

 47 47  0  0  0  0  0  0  0  0999 V2000
   -2.6570   31.0420    9.3320 C   0  0  0  0  0  0  0  0  0  0  0  0
   -2.2700   29.9420   10.3060 C   0  0  0  0  0  0  0  0  0  0  0  0
   -1.1300   29.0800    9.7880 C   0  0  0  0  0  0  0  0  0  0  0  0
   -1.2630   27.8880    9.5410 O   0  0  0  0  0  0  0  0  0  0  0  0
    0.0210   29.8290    9.5900 N   0  0  0  0  0  0  0  0  0  0  0  0
    1.2650   29.3240    9.1500 C   0  0  0  0  0  0  0  0  0  0  0  0
    1.7760   28.2450    9.8780 C   0  0  0  0  0  0  0  0  0  0  0  0
    3.0310   27.7000    9.5840 C   0  0  0  0  0  0  0  0  0  0  0  0
    3.7990   28.1810    8.5270 C   0  0  0  0  0  0  0  0  0  0  0  0
    5.1150   27.8100    8.2600 N   0  0  0  0  0  0  0  0  0  0  0  0
    5.5470   26.4590    7.8220 C   0  0  2  0  0  0  0  0  0  0  0  0
    7.0590   26.2880    7.8580 C   0  0  0  0  0  0  0  0  0  0  0  0
    4.8940   26.0650    6.4780 C   0  0  0  0  0  0  0  0  0  0  0  0
    4.0960   25.1410    6.3780 O   0  0  0  0  0  0  0  0  0  0  0  0
    5.2430   26.9590    5.4770 N   0  0  0  0  0  0  0  0  0  0  0  0
    5.4910   26.4980    4.2110 C   0  0  0  0  0  0  0  0  0  0  0  0
    4.7560   25.7710    3.5570 O   0  0  0  0  0  0  0  0  0  0  0  0
    6.6410   27.0510    3.6850 N   0  0  0  0  0  0  0  0  0  0  0  0
    7.0420   26.7160    2.3150 C   0  0  0  0  0  0  0  0  0  0  0  0
    6.5090   27.6470    1.2210 C   0  0  0  0  0  0  0  0  0  0  0  0
    6.7190   28.9450    1.5500 F   0  0  0  0  0  0  0  0  0  0  0  0
    5.1940   27.4920    0.9750 F   0  0  0  0  0  0  0  0  0  0  0  0
    7.1690   27.4220    0.0590 F   0  0  0  0  0  0  0  0  0  0  0  0
    3.2550   29.2330    7.7750 C   0  0  0  0  0  0  0  0  0  0  0  0
    1.9870   29.7940    8.0440 C   0  0  0  0  0  0  0  0  0  0  0  0
    1.4930   30.8460    7.0890 C   0  0  0  0  0  0  0  0  0  0  0  0
   -2.9710   31.9346    9.8929 H   0  0  0  0  0  0  0  0  0  0  0  0
   -1.7928   31.2920    8.6990 H   0  0  0  0  0  0  0  0  0  0  0  0
   -3.4873   30.6958    8.6990 H   0  0  0  0  0  0  0  0  0  0  0  0
   -1.9598   30.4041   11.2548 H   0  0  0  0  0  0  0  0  0  0  0  0
   -3.1466   29.2912   10.4405 H   0  0  0  0  0  0  0  0  0  0  0  0
   -0.1390   30.8140    9.4250 H   0  0  0  0  0  0  0  0  0  0  0  0
    1.1802   27.8164   10.6974 H   0  0  0  0  0  0  0  0  0  0  0  0
    3.4184   26.8752   10.2002 H   0  0  0  0  0  0  0  0  0  0  0  0
    5.6120   28.5480    7.7580 H   0  0  0  0  0  0  0  0  0  0  0  0
    5.1728   25.7331    8.5589 H   0  0  0  0  0  0  0  0  0  0  0  0
    7.3989   26.2496    8.9035 H   0  0  0  0  0  0  0  0  0  0  0  0
    7.3345   25.3530    7.3483 H   0  0  0  0  0  0  0  0  0  0  0  0
    7.5364   27.1379    7.3483 H   0  0  0  0  0  0  0  0  0  0  0  0
    5.9650   27.5910    5.8010 H   0  0  0  0  0  0  0  0  0  0  0  0
    7.3960   27.2330    4.3340 H   0  0  0  0  0  0  0  0  0  0  0  0
    8.1409   26.7358    2.2700 H   0  0  0  0  0  0  0  0  0  0  0  0
    6.6051   25.7280    2.1075 H   0  0  0  0  0  0  0  0  0  0  0  0
    3.8423   29.6392    6.9383 H   0  0  0  0  0  0  0  0  0  0  0  0
    1.0927   31.6984    7.6575 H   0  0  0  0  0  0  0  0  0  0  0  0
    2.3255   31.1862    6.4556 H   0  0  0  0  0  0  0  0  0  0  0  0
    0.6995   30.4227    6.4556 H   0  0  0  0  0  0  0  0  0  0  0  0
  1  2  1  0
  2  3  1  0
  3  4  2  0
  3  5  1  0
  5  6  1  0
  6  7  2  0
  7  8  1  0
  8  9  2  0
  9 10  1  0
 10 11  1  0
 11 12  1  0
 11 13  1  0
 13 14  2  0
 13 15  1  0
 15 16  1  0
 16 17  2  0
 16 18  1  0
 18 19  1  0
 19 20  1  0
 20 21  1  0
 20 22  1  0
 20 23  1  0
  9 24  1  0
 24 25  2  0
 25 26  1  0
 25  6  1  0
  1 27  1  0
  1 28  1  0
  1 29  1  0
  2 30  1  0
  2 31  1  0
  5 32  1  0
  7 33  1  0
  8 34  1  0
 10 35  1  0
 11 36  1  1
 12 37  1  0
 12 38  1  0
 12 39  1  0
 15 40  1  0
 18 41  1  0
 19 42  1  0
 19 43  1  0
 24 44  1  0
 26 45  1  0
 26 46  1  0
 26 47  1  0
M  END
>  <vina_affinity>  (1) 
-7.915

$$$$
dec_C11872167
     RDKit          3D

 52 55  0  0  0  0  0  0  0  0999 V2000
   -1.4320   21.0730   14.8350 O   0  0  0  0  0  0  0  0  0  0  0  0
   -1.0710   22.3880   15.3080 S   0  0  0  0  0  0  0  0  0  0  0  0
   -0.3790   22.5690   16.5680 O   0  0  0  0  0  0  0  0  0  0  0  0
   -0.0470   23.0180   14.1440 N   0  0  0  0  0  0  0  0  0  0  0  0
   -0.2570   22.6580   12.7380 C   0  0  0  0  0  0  0  0  0  0  0  0
    0.7440   23.4480   11.9710 C   0  0  0  0  0  0  0  0  0  0  0  0
    2.0540   23.3820   12.1000 N   0  0  0  0  0  0  0  0  0  0  0  0
    2.6190   24.3910   11.3580 N   0  0  0  0  0  0  0  0  0  0  0  0
    1.6490   25.0520   10.7780 C   0  0  0  0  0  0  0  0  0  0  0  0
    0.4500   24.4730   11.1130 N   0  0  0  0  0  0  0  0  0  0  0  0
   -0.8200   25.0810   10.8030 C   0  0  0  0  0  0  0  0  0  0  0  0
   -1.0600   26.3920   11.5620 C   0  0  0  0  0  0  0  0  0  0  0  0
   -0.3300   27.5990   10.9690 N   0  0  2  0  0  0  0  0  0  0  0  0
   -0.9790   28.0920    9.6780 C   0  0  0  0  0  0  0  0  0  0  0  0
   -1.3040   29.5490    9.6000 C   0  0  0  0  0  0  0  0  0  0  0  0
   -2.4990   30.0530   10.1160 C   0  0  0  0  0  0  0  0  0  0  0  0
   -3.3860   29.2050   10.6510 F   0  0  0  0  0  0  0  0  0  0  0  0
   -2.8030   31.4130   10.0690 C   0  0  0  0  0  0  0  0  0  0  0  0
   -1.8980   32.3030    9.4910 C   0  0  0  0  0  0  0  0  0  0  0  0
   -0.7050   31.8160    8.9690 C   0  0  0  0  0  0  0  0  0  0  0  0
    0.1600   32.6620    8.3960 F   0  0  0  0  0  0  0  0  0  0  0  0
   -0.4140   30.4560    9.0250 C   0  0  0  0  0  0  0  0  0  0  0  0
    0.7310   29.9970    8.4980 F   0  0  0  0  0  0  0  0  0  0  0  0
    1.1940   27.5170   10.8710 C   0  0  0  0  0  0  0  0  0  0  0  0
    1.7260   26.3360   10.0410 C   0  0  0  0  0  0  0  0  0  0  0  0
   -2.4790   23.4490   15.2380 C   0  0  0  0  0  0  0  0  0  0  0  0
   -3.7060   22.9840   15.7200 C   0  0  0  0  0  0  0  0  0  0  0  0
   -4.8230   23.8160   15.6650 C   0  0  0  0  0  0  0  0  0  0  0  0
   -4.7100   25.1040   15.1400 C   0  0  0  0  0  0  0  0  0  0  0  0
   -3.4780   25.5690   14.6750 C   0  0  0  0  0  0  0  0  0  0  0  0
   -2.3550   24.7440   14.7260 C   0  0  0  0  0  0  0  0  0  0  0  0
    0.9310   23.0590   14.4400 H   0  0  0  0  0  0  0  0  0  0  0  0
   -0.0927   21.5807   12.5884 H   0  0  0  0  0  0  0  0  0  0  0  0
   -1.2847   22.8742   12.4107 H   0  0  0  0  0  0  0  0  0  0  0  0
   -0.8540   25.2900    9.7236 H   0  0  0  0  0  0  0  0  0  0  0  0
   -1.6056   24.3751   11.1105 H   0  0  0  0  0  0  0  0  0  0  0  0
   -2.1395   26.6031   11.5544 H   0  0  0  0  0  0  0  0  0  0  0  0
   -0.6627   26.2482   12.5776 H   0  0  0  0  0  0  0  0  0  0  0  0
   -0.5150   28.3860   11.6130 H   0  0  0  0  0  0  0  0  0  0  0  0
   -0.2924   27.8596    8.8507 H   0  0  0  0  0  0  0  0  0  0  0  0
   -1.9502   27.5778    9.6298 H   0  0  0  0  0  0  0  0  0  0  0  0
   -3.7518   31.7821   10.4857 H   0  0  0  0  0  0  0  0  0  0  0  0
   -2.1256   33.3784    9.4486 H   0  0  0  0  0  0  0  0  0  0  0  0
    1.5577   28.4484   10.4126 H   0  0  0  0  0  0  0  0  0  0  0  0
    1.5618   27.3645   11.8964 H   0  0  0  0  0  0  0  0  0  0  0  0
    1.1288   26.2524    9.1210 H   0  0  0  0  0  0  0  0  0  0  0  0
    2.7846   26.5323    9.8156 H   0  0  0  0  0  0  0  0  0  0  0  0
   -3.7893   21.9704   16.1390 H   0  0  0  0  0  0  0  0  0  0  0  0
   -5.7944   23.4570   16.0358 H   0  0  0  0  0  0  0  0  0  0  0  0
   -5.5949   25.7557   15.0922 H   0  0  0  0  0  0  0  0  0  0  0  0
   -3.3934   26.5874   14.2680 H   0  0  0  0  0  0  0  0  0  0  0  0
   -1.3812   25.1085   14.3670 H   0  0  0  0  0  0  0  0  0  0  0  0
  1  2  2  0
  2  3  2  0
  2  4  1  0
  4  5  1  0
  5  6  1  0
  6  7  2  0
  7  8  1  0
  8  9  2  0
  9 10  1  0
 10 11  1  0
 11 12  1  0
 12 13  1  0
 13 14  1  0
 14 15  1  0
 15 16  2  0
 16 17  1  0
 16 18  1  0
 18 19  2  0
 19 20  1  0
 20 21  1  0
 20 22  2  0
 22 23  1  0
 13 24  1  0
 24 25  1  0
  2 26  1  0
 26 27  2  0
 27 28  1  0
 28 29  2  0
 29 30  1  0
 30 31  2  0
 10  6  1  0
 22 15  1  0
 31 26  1  0
 25  9  1  0
  4 32  1  0
  5 33  1  0
  5 34  1  0
 11 35  1  0
 11 36  1  0
 12 37  1  0
 12 38  1  0
 13 39  1  1
 14 40  1  0
 14 41  1  0
 18 42  1  0
 19 43  1  0
 24 44  1  0
 24 45  1  0
 25 46  1  0
 25 47  1  0
 27 48  1  0
 28 49  1  0
 29 50  1  0
 30 51  1  0
 31 52  1  0
M  CHG  1  13   1
M  END
>  <vina_affinity>  (1) 
-7.574

$$$$
dec_C40512694
     RDKit          3D

 50 53  0  0  0  0  0  0  0  0999 V2000
    4.7070   20.3400    3.7680 C   0  0  0  0  0  0  0  0  0  0  0  0
    4.8320   20.1110    5.1730 O   0  0  0  0  0  0  0  0  0  0  0  0
    6.0510   20.4350    5.6820 C   0  0  0  0  0  0  0  0  0  0  0  0
    7.0930   19.8540    5.3930 O   0  0  0  0  0  0  0  0  0  0  0  0
    6.0110   21.6330    6.6220 C   0  0  0  0  0  0  0  0  0  0  0  0
    6.3360   22.9270    6.0570 N   0  0  0  0  0  0  0  0  0  0  0  0
    5.3880   23.7630    5.4510 C   0  0  0  0  0  0  0  0  0  0  0  0
    4.2140   23.4890    5.2330 O   0  0  0  0  0  0  0  0  0  0  0  0
    6.1000   25.1160    5.1360 C   0  0  1  0  0  0  0  0  0  0  0  0
    6.0750   25.4120    3.6510 C   0  0  0  0  0  0  0  0  0  0  0  0
    6.7300   24.4900    2.7060 C   0  0  0  0  0  0  0  0  0  0  0  0
    6.3680   23.3330    2.5370 O   0  0  0  0  0  0  0  0  0  0  0  0
    7.7930   25.0830    2.1210 O   0  0  0  0  0  0  0  0  0  0  0  0
    9.0000   24.3290    2.2120 C   0  0  0  0  0  0  0  0  0  0  0  0
    5.5370   26.5380    3.1380 C   0  0  0  0  0  0  0  0  0  0  0  0
    5.5260   26.8970    1.8090 N   0  0  0  0  0  0  0  0  0  0  0  0
    4.9430   27.4900    3.9600 O   0  0  0  0  0  0  0  0  0  0  0  0
    4.8700   27.2750    5.3190 C   0  0  0  0  0  0  0  0  0  0  0  0
    4.1800   28.3120    6.0450 C   0  0  0  0  0  0  0  0  0  0  0  0
    4.0280   28.2130    7.3740 C   0  0  0  0  0  0  0  0  0  0  0  0
    3.3220   29.2320    8.2110 C   0  0  0  0  0  0  0  0  0  0  0  0
    4.5390   27.1120    8.0170 N   0  0  0  0  0  0  0  0  0  0  0  0
    5.2030   26.0780    7.4010 C   0  0  0  0  0  0  0  0  0  0  0  0
    5.6110   25.1230    8.0530 O   0  0  0  0  0  0  0  0  0  0  0  0
    5.3910   26.1940    5.9250 C   0  0  0  0  0  0  0  0  0  0  0  0
    7.5100   24.8480    5.6340 C   0  0  0  0  0  0  0  0  0  0  0  0
    8.6200   25.6820    5.6250 C   0  0  0  0  0  0  0  0  0  0  0  0
    9.8120   25.1930    6.1640 C   0  0  0  0  0  0  0  0  0  0  0  0
    9.8790   23.8980    6.7030 C   0  0  0  0  0  0  0  0  0  0  0  0
    8.7550   23.0670    6.7110 C   0  0  0  0  0  0  0  0  0  0  0  0
    7.5830   23.5570    6.1680 C   0  0  0  0  0  0  0  0  0  0  0  0
    4.1864   21.2938    3.5968 H   0  0  0  0  0  0  0  0  0  0  0  0
    5.7075   20.3816    3.3128 H   0  0  0  0  0  0  0  0  0  0  0  0
    4.1309   19.5209    3.3128 H   0  0  0  0  0  0  0  0  0  0  0  0
    4.9929   21.6974    7.0334 H   0  0  0  0  0  0  0  0  0  0  0  0
    6.8009   21.4397    7.3628 H   0  0  0  0  0  0  0  0  0  0  0  0
    9.2542   24.1702    3.2704 H   0  0  0  0  0  0  0  0  0  0  0  0
    8.8626   23.3559    1.7179 H   0  0  0  0  0  0  0  0  0  0  0  0
    9.8143   24.8793    1.7179 H   0  0  0  0  0  0  0  0  0  0  0  0
    4.7970   26.4230    1.2710 H   0  0  0  0  0  0  0  0  0  0  0  0
    6.4440   26.7890    1.3840 H   0  0  0  0  0  0  0  0  0  0  0  0
    3.7782   29.1845    5.5090 H   0  0  0  0  0  0  0  0  0  0  0  0
    3.4794   29.0048    9.2757 H   0  0  0  0  0  0  0  0  0  0  0  0
    3.7220   30.2318    7.9864 H   0  0  0  0  0  0  0  0  0  0  0  0
    2.2454   29.2088    7.9864 H   0  0  0  0  0  0  0  0  0  0  0  0
    4.4210   27.0100    9.0180 H   0  0  0  0  0  0  0  0  0  0  0  0
    8.5623   26.6974    5.2059 H   0  0  0  0  0  0  0  0  0  0  0  0
   10.7090   25.8298    6.1664 H   0  0  0  0  0  0  0  0  0  0  0  0
   10.8275   23.5331    7.1240 H   0  0  0  0  0  0  0  0  0  0  0  0
    8.8023   22.0538    7.1367 H   0  0  0  0  0  0  0  0  0  0  0  0
  1  2  1  0
  2  3  1  0
  3  4  2  0
  3  5  1  0
  5  6  1  0
  6  7  1  0
  7  8  2  0
  9  7  1  6
  9 10  1  0
 10 11  1  0
 11 12  2  0
 11 13  1  0
 13 14  1  0
 10 15  2  0
 15 16  1  0
 15 17  1  0
 17 18  1  0
 18 19  1  0
 19 20  2  0
 20 21  1  0
 20 22  1  0
 22 23  1  0
 23 24  2  0
 23 25  1  0
  9 26  1  0
 26 27  2  0
 27 28  1  0
 28 29  2  0
 29 30  1  0
 30 31  2  0
 31  6  1  0
 25  9  1  0
 31 26  1  0
 25 18  2  0
  1 32  1  0
  1 33  1  0
  1 34  1  0
  5 35  1  0
  5 36  1  0
 14 37  1  0
 14 38  1  0
 14 39  1  0
 16 40  1  0
 16 41  1  0
 19 42  1  0
 21 43  1  0
 21 44  1  0
 21 45  1  0
 22 46  1  0
 27 47  1  0
 28 48  1  0
 29 49  1  0
 30 50  1  0
M  END
>  <vina_affinity>  (1) 
-5.763

$$$$
dec_C05040695
     RDKit          3D

 50 52  0  0  0  0  0  0  0  0999 V2000
    0.3540   29.6950   11.9570 C   0  0  0  0  0  0  0  0  0  0  0  0
   -0.8640   30.3260   11.2720 C   0  0  1  0  0  0  0  0  0  0  0  0
   -0.4050   31.1970   10.0910 C   0  0  0  0  0  0  0  0  0  0  0  0
   -1.5820   31.8510    9.3750 C   0  0  0  0  0  0  0  0  0  0  0  0
   -2.5940   30.8180    8.8990 C   0  0  0  0  0  0  0  0  0  0  0  0
   -3.0830   29.9360   10.0460 C   0  0  0  0  0  0  0  0  0  0  0  0
   -1.9380   29.3010   10.8520 C   0  0  2  0  0  0  0  0  0  0  0  0
   -2.4940   28.6120   12.0050 N   0  0  0  0  0  0  0  0  0  0  0  0
   -2.4320   27.2450   11.8860 C   0  0  0  0  0  0  0  0  0  0  0  0
   -2.9540   26.4610   12.6600 O   0  0  0  0  0  0  0  0  0  0  0  0
   -1.7180   26.9420   10.7720 N   0  0  0  0  0  0  0  0  0  0  0  0
   -1.4750   25.5960   10.3050 C   0  0  0  0  0  0  0  0  0  0  0  0
   -0.6040   24.7900   11.2590 C   0  0  0  0  0  0  0  0  0  0  0  0
   -0.8410   23.6250   11.5660 O   0  0  0  0  0  0  0  0  0  0  0  0
    0.4510   25.4950   11.7500 O   0  0  0  0  0  0  0  0  0  0  0  0
    1.7090   24.8180   11.7330 C   0  0  0  0  0  0  0  0  0  0  0  0
    2.5200   25.0530   10.4540 C   0  0  0  0  0  0  0  0  0  0  0  0
    2.9800   24.1070    9.8220 O   0  0  0  0  0  0  0  0  0  0  0  0
    2.6410   26.3900   10.1230 N   0  0  0  0  0  0  0  0  0  0  0  0
    3.3140   26.9480    9.0140 C   0  0  0  0  0  0  0  0  0  0  0  0
    4.2180   26.2540    8.2100 C   0  0  0  0  0  0  0  0  0  0  0  0
    4.8260   26.9060    7.1370 C   0  0  0  0  0  0  0  0  0  0  0  0
    5.6930   26.2340    6.3660 F   0  0  0  0  0  0  0  0  0  0  0  0
    4.5540   28.2390    6.8440 C   0  0  0  0  0  0  0  0  0  0  0  0
    3.6530   28.9410    7.6390 C   0  0  0  0  0  0  0  0  0  0  0  0
    3.0430   28.2910    8.7120 C   0  0  0  0  0  0  0  0  0  0  0  0
    2.1750   28.9790    9.4700 F   0  0  0  0  0  0  0  0  0  0  0  0
   -1.3770   28.0760   10.0900 C   0  0  0  0  0  0  0  0  0  0  0  0
   -0.7680   28.1050    9.0300 O   0  0  0  0  0  0  0  0  0  0  0  0
    0.2339   29.7572   13.0486 H   0  0  0  0  0  0  0  0  0  0  0  0
    0.4378   28.6401   11.6569 H   0  0  0  0  0  0  0  0  0  0  0  0
    1.2641   30.2350   11.6569 H   0  0  0  0  0  0  0  0  0  0  0  0
   -1.3617   30.9649   12.0164 H   0  0  0  0  0  0  0  0  0  0  0  0
    0.2635   31.9846   10.4688 H   0  0  0  0  0  0  0  0  0  0  0  0
    0.1141   30.5479    9.3705 H   0  0  0  0  0  0  0  0  0  0  0  0
   -2.0799   32.5453   10.0678 H   0  0  0  0  0  0  0  0  0  0  0  0
   -1.1950   32.3842    8.4941 H   0  0  0  0  0  0  0  0  0  0  0  0
   -3.4561   31.3402    8.4584 H   0  0  0  0  0  0  0  0  0  0  0  0
   -2.1020   30.1730    8.1561 H   0  0  0  0  0  0  0  0  0  0  0  0
   -3.6899   30.5516   10.7262 H   0  0  0  0  0  0  0  0  0  0  0  0
   -3.6649   29.1149    9.6019 H   0  0  0  0  0  0  0  0  0  0  0  0
   -3.0710   29.0340   12.7230 H   0  0  0  0  0  0  0  0  0  0  0  0
   -2.4415   25.0829   10.1926 H   0  0  0  0  0  0  0  0  0  0  0  0
   -0.9386   25.6689    9.3474 H   0  0  0  0  0  0  0  0  0  0  0  0
    2.3032   25.1684   12.5898 H   0  0  0  0  0  0  0  0  0  0  0  0
    1.4939   23.7404   11.7828 H   0  0  0  0  0  0  0  0  0  0  0  0
    2.2350   27.0690   10.7720 H   0  0  0  0  0  0  0  0  0  0  0  0
    4.4500   25.1996    8.4206 H   0  0  0  0  0  0  0  0  0  0  0  0
    5.0460   28.7326    5.9929 H   0  0  0  0  0  0  0  0  0  0  0  0
    3.4247   29.9953    7.4240 H   0  0  0  0  0  0  0  0  0  0  0  0
  1  2  1  0
  2  3  1  0
  3  4  1  0
  4  5  1  0
  5  6  1  0
  6  7  1  0
  7  8  1  1
  8  9  1  0
  9 10  2  0
  9 11  1  0
 11 12  1  0
 12 13  1  0
 13 14  2  0
 13 15  1  0
 15 16  1  0
 16 17  1  0
 17 18  2  0
 17 19  1  0
 19 20  1  0
 20 21  2  0
 21 22  1  0
 22 23  1  0
 22 24  2  0
 24 25  1  0
 25 26  2  0
 26 27  1  0
 11 28  1  0
 28 29  2  0
  7  2  1  0
 26 20  1  0
 28  7  1  0
  1 30  1  0
  1 31  1  0
  1 32  1  0
  2 33  1  1
  3 34  1  0
  3 35  1  0
  4 36  1  0
  4 37  1  0
  5 38  1  0
  5 39  1  0
  6 40  1  0
  6 41  1  0
  8 42  1  0
 12 43  1  0
 12 44  1  0
 16 45  1  0
 16 46  1  0
 19 47  1  0
 21 48  1  0
 24 49  1  0
 25 50  1  0
M  END
>  <vina_affinity>  (1) 
-8.835

$$$$
dec_C67119865
     RDKit          3D

 30 31  0  0  0  0  0  0  0  0999 V2000
    4.8650   28.2190    8.9100 O   0  0  0  0  0  0  0  0  0  0  0  0
    4.1920   28.6040    7.9430 N   0  0  0  0  0  0  0  0  0  0  0  0
    4.5830   28.5910    6.7670 O   0  0  0  0  0  0  0  0  0  0  0  0
    2.8400   29.1090    8.2080 C   0  0  0  0  0  0  0  0  0  0  0  0
    2.1250   28.6320    9.3130 C   0  0  0  0  0  0  0  0  0  0  0  0
    0.8390   29.1170    9.5590 C   0  0  0  0  0  0  0  0  0  0  0  0
    0.2620   30.0750    8.7120 C   0  0  0  0  0  0  0  0  0  0  0  0
   -1.1390   30.5830    8.9840 C   0  0  0  0  0  0  0  0  0  0  0  0
   -1.5030   30.5920   10.4760 C   0  0  0  0  0  0  0  0  0  0  0  0
   -2.5300   29.6130   10.8040 N   0  0  0  0  0  0  0  0  0  0  0  0
   -2.1490   28.5790   11.6420 C   0  0  0  0  0  0  0  0  0  0  0  0
   -2.7700   27.3900   11.5920 N   0  0  0  0  0  0  0  0  0  0  0  0
   -2.3500   26.4400   12.4560 C   0  0  0  0  0  0  0  0  0  0  0  0
   -1.3340   26.6340   13.3580 C   0  0  0  0  0  0  0  0  0  0  0  0
   -0.7750   25.2940   14.5450 Br  0  0  0  0  0  0  0  0  0  0  0  0
   -0.7560   27.8780   13.3280 C   0  0  0  0  0  0  0  0  0  0  0  0
   -1.1430   28.8590   12.4820 N   0  0  0  0  0  0  0  0  0  0  0  0
    0.9880   30.5420    7.6070 C   0  0  0  0  0  0  0  0  0  0  0  0
    2.2750   30.0640    7.3520 C   0  0  0  0  0  0  0  0  0  0  0  0
    2.5724   27.8817    9.9816 H   0  0  0  0  0  0  0  0  0  0  0  0
    0.2728   28.7443   10.4253 H   0  0  0  0  0  0  0  0  0  0  0  0
   -1.2188   31.6103    8.5990 H   0  0  0  0  0  0  0  0  0  0  0  0
   -1.8374   29.8969    8.4824 H   0  0  0  0  0  0  0  0  0  0  0  0
   -0.5995   30.3654   11.0612 H   0  0  0  0  0  0  0  0  0  0  0  0
   -1.9011   31.5886   10.7176 H   0  0  0  0  0  0  0  0  0  0  0  0
   -3.3830   29.9930   11.1970 H   0  0  0  0  0  0  0  0  0  0  0  0
   -2.8485   25.4597   12.4354 H   0  0  0  0  0  0  0  0  0  0  0  0
    0.0653   28.0882   14.0290 H   0  0  0  0  0  0  0  0  0  0  0  0
    0.5405   31.2902    6.9362 H   0  0  0  0  0  0  0  0  0  0  0  0
    2.8416   30.4346    6.4850 H   0  0  0  0  0  0  0  0  0  0  0  0
  1  2  2  0
  2  3  1  0
  2  4  1  0
  4  5  2  0
  5  6  1  0
  6  7  2  0
  7  8  1  0
  8  9  1  0
  9 10  1  0
 10 11  1  0
 11 12  2  0
 12 13  1  0
 13 14  2  0
 14 15  1  0
 14 16  1  0
 16 17  2  0
  7 18  1  0
 18 19  2  0
 19  4  1  0
 17 11  1  0
  5 20  1  0
  6 21  1  0
  8 22  1  0
  8 23  1  0
  9 24  1  0
  9 25  1  0
 10 26  1  0
 13 27  1  0
 16 28  1  0
 18 29  1  0
 19 30  1  0
M  CHG  2   2   1   3  -1
M  END
>  <vina_affinity>  (1) 
-6.974

$$$$
dec_C43406371
     RDKit          3D

 35 37  0  0  0  0  0  0  0  0999 V2000
    2.9090   27.2330   10.0490 N   0  0  0  0  0  0  0  0  0  0  0  0
    1.8650   27.7410   10.0860 C   0  0  0  0  0  0  0  0  0  0  0  0
    0.6030   28.4120   10.1190 C   0  0  0  0  0  0  0  0  0  0  0  0
    0.5750   29.6940    9.5310 C   0  0  0  0  0  0  0  0  0  0  0  0
   -0.6090   30.3910    9.5290 C   0  0  0  0  0  0  0  0  0  0  0  0
   -1.7220   29.7940   10.0810 C   0  0  0  0  0  0  0  0  0  0  0  0
   -1.7380   28.5670   10.6310 N   0  0  0  0  0  0  0  0  0  0  0  0
   -0.5700   27.8600   10.6880 C   0  0  0  0  0  0  0  0  0  0  0  0
   -0.6750   26.6220   11.2830 N   0  0  0  0  0  0  0  0  0  0  0  0
   -0.9550   25.3530   10.6110 C   0  0  0  0  0  0  0  0  0  0  0  0
   -0.7700   24.2900   11.6880 C   0  0  0  0  0  0  0  0  0  0  0  0
    0.3170   24.8810   12.5660 C   0  0  0  0  0  0  0  0  0  0  0  0
   -0.0370   26.3730   12.6060 C   0  0  2  0  0  0  0  0  0  0  0  0
   -1.0140   26.6990   13.7580 C   0  0  0  0  0  0  0  0  0  0  0  0
   -2.2710   27.0630   13.3570 N   0  0  0  0  0  0  0  0  0  0  0  0
   -0.7300   26.6660   14.9530 O   0  0  0  0  0  0  0  0  0  0  0  0
   -2.9320   30.6730    9.9360 C   0  0  0  0  0  0  0  0  0  0  0  0
   -2.2700   32.0300    9.6570 C   0  0  0  0  0  0  0  0  0  0  0  0
   -0.9330   31.7310    8.9610 C   0  0  0  0  0  0  0  0  0  0  0  0
    1.4820   30.1265    9.0835 H   0  0  0  0  0  0  0  0  0  0  0  0
   -1.9851   25.3382   10.2255 H   0  0  0  0  0  0  0  0  0  0  0  0
   -0.2943   25.1870    9.7473 H   0  0  0  0  0  0  0  0  0  0  0  0
   -1.6989   24.1377   12.2571 H   0  0  0  0  0  0  0  0  0  0  0  0
   -0.5100   23.3014   11.2818 H   0  0  0  0  0  0  0  0  0  0  0  0
    0.2914   24.4424   13.5744 H   0  0  0  0  0  0  0  0  0  0  0  0
    1.3310   24.6884   12.1856 H   0  0  0  0  0  0  0  0  0  0  0  0
    0.8452   27.0051   12.7853 H   0  0  0  0  0  0  0  0  0  0  0  0
   -2.5440   26.7870   12.4150 H   0  0  0  0  0  0  0  0  0  0  0  0
   -2.9820   27.1150   14.0720 H   0  0  0  0  0  0  0  0  0  0  0  0
   -3.5671   30.3523    9.0971 H   0  0  0  0  0  0  0  0  0  0  0  0
   -3.6071   30.6656   10.8045 H   0  0  0  0  0  0  0  0  0  0  0  0
   -2.9114   32.6377    9.0019 H   0  0  0  0  0  0  0  0  0  0  0  0
   -2.1151   32.5949   10.5881 H   0  0  0  0  0  0  0  0  0  0  0  0
   -1.0473   31.6893    7.8678 H   0  0  0  0  0  0  0  0  0  0  0  0
   -0.1564   32.4926    9.1252 H   0  0  0  0  0  0  0  0  0  0  0  0
  1  2  3  0
  2  3  1  0
  3  4  2  0
  4  5  1  0
  5  6  2  0
  6  7  1  0
  7  8  2  0
  8  9  1  0
  9 10  1  0
 10 11  1  0
 11 12  1  0
 12 13  1  0
 13 14  1  0
 14 15  1  0
 14 16  2  0
  6 17  1  0
 17 18  1  0
 18 19  1  0
  8  3  1  0
 13  9  1  0
 19  5  1  0
  4 20  1  0
 10 21  1  0
 10 22  1  0
 11 23  1  0
 11 24  1  0
 12 25  1  0
 12 26  1  0
 13 27  1  1
 15 28  1  0
 15 29  1  0
 17 30  1  0
 17 31  1  0
 18 32  1  0
 18 33  1  0
 19 34  1  0
 19 35  1  0
M  END
>  <vina_affinity>  (1) 
-7.768

$$$$
dec_C13722760
     RDKit          3D

 65 67  0  0  0  0  0  0  0  0999 V2000
   -6.5170   20.0900   14.5860 C   0  0  0  0  0  0  0  0  0  0  0  0
   -5.2680   19.4120   14.4860 O   0  0  0  0  0  0  0  0  0  0  0  0
   -4.2660   19.9430   15.2500 C   0  0  0  0  0  0  0  0  0  0  0  0
   -4.2740   20.0220   16.6380 C   0  0  0  0  0  0  0  0  0  0  0  0
   -3.1960   20.6010   17.3150 C   0  0  0  0  0  0  0  0  0  0  0  0
   -2.0950   21.1000   16.6090 C   0  0  0  0  0  0  0  0  0  0  0  0
   -1.0200   21.6990   17.2100 O   0  0  0  0  0  0  0  0  0  0  0  0
   -0.4540   21.0160   18.3230 C   0  0  0  0  0  0  0  0  0  0  0  0
   -2.0800   21.0400   15.2050 C   0  0  0  0  0  0  0  0  0  0  0  0
   -0.8940   21.5580   14.4060 C   0  0  1  0  0  0  0  0  0  0  0  0
   -0.4860   20.7190   13.2380 C   0  0  0  0  0  0  0  0  0  0  0  0
    0.0040   19.3560   13.5280 C   0  0  0  0  0  0  0  0  0  0  0  0
   -0.1840   18.4460   12.7220 O   0  0  0  0  0  0  0  0  0  0  0  0
    0.9630   19.2410   14.6230 C   0  0  0  0  0  0  0  0  0  0  0  0
    2.2900   19.7660   14.6100 C   0  0  0  0  0  0  0  0  0  0  0  0
    2.9690   20.4880   13.5060 C   0  0  0  0  0  0  0  0  0  0  0  0
    2.9250   19.5680   15.7710 N   0  0  0  0  0  0  0  0  0  0  0  0
    2.0420   18.8730   16.5060 N   0  0  0  0  0  0  0  0  0  0  0  0
    2.4210   18.4650   17.8390 C   0  0  0  0  0  0  0  0  0  0  0  0
    0.8570   18.6240   15.8630 C   0  0  0  0  0  0  0  0  0  0  0  0
   -0.2270   17.8010   16.4610 C   0  0  0  0  0  0  0  0  0  0  0  0
   -0.4630   21.3510   12.0490 C   0  0  0  0  0  0  0  0  0  0  0  0
   -0.1810   21.0560   10.8620 O   0  0  0  0  0  0  0  0  0  0  0  0
   -0.8570   22.7560   12.4060 C   0  0  0  0  0  0  0  0  0  0  0  0
   -0.9440   23.7300   11.6650 O   0  0  0  0  0  0  0  0  0  0  0  0
   -1.2050   22.8030   13.7400 N   0  0  0  0  0  0  0  0  0  0  0  0
   -1.5370   24.0310   14.4300 C   0  0  0  0  0  0  0  0  0  0  0  0
   -0.3840   25.0380   14.4750 C   0  0  0  0  0  0  0  0  0  0  0  0
   -0.6690   26.4520   13.9580 C   0  0  0  0  0  0  0  0  0  0  0  0
   -0.9610   26.5330   12.4870 N   0  0  0  0  0  0  0  0  0  0  0  0
   -2.4010   26.8700   12.2220 C   0  0  0  0  0  0  0  0  0  0  0  0
   -0.0220   27.3520   11.6800 C   0  0  0  0  0  0  0  0  0  0  0  0
   -3.1860   20.4690   14.5440 C   0  0  0  0  0  0  0  0  0  0  0  0
   -6.7745   20.2298   15.6463 H   0  0  0  0  0  0  0  0  0  0  0  0
   -6.4420   21.0712   14.0945 H   0  0  0  0  0  0  0  0  0  0  0  0
   -7.2989   19.4925   14.0945 H   0  0  0  0  0  0  0  0  0  0  0  0
   -5.1303   19.6281   17.2051 H   0  0  0  0  0  0  0  0  0  0  0  0
   -3.2134   20.6650   18.4130 H   0  0  0  0  0  0  0  0  0  0  0  0
   -0.8257   21.4645   19.2561 H   0  0  0  0  0  0  0  0  0  0  0  0
   -0.7410   19.9547   18.2866 H   0  0  0  0  0  0  0  0  0  0  0  0
    0.6421   21.1009   18.2866 H   0  0  0  0  0  0  0  0  0  0  0  0
   -0.1140   21.6020   15.1803 H   0  0  0  0  0  0  0  0  0  0  0  0
    3.6655   21.2286   13.9260 H   0  0  0  0  0  0  0  0  0  0  0  0
    3.5267   19.7700   12.8867 H   0  0  0  0  0  0  0  0  0  0  0  0
    2.2182   21.0007   12.8867 H   0  0  0  0  0  0  0  0  0  0  0  0
    1.8659   19.0626   18.5771 H   0  0  0  0  0  0  0  0  0  0  0  0
    2.1848   17.3996   17.9774 H   0  0  0  0  0  0  0  0  0  0  0  0
    3.5009   18.6222   17.9774 H   0  0  0  0  0  0  0  0  0  0  0  0
   -0.1621   17.8503   17.5580 H   0  0  0  0  0  0  0  0  0  0  0  0
   -1.2036   18.1872   16.1338 H   0  0  0  0  0  0  0  0  0  0  0  0
   -0.1174   16.7565   16.1338 H   0  0  0  0  0  0  0  0  0  0  0  0
   -2.3888   24.4999   13.9156 H   0  0  0  0  0  0  0  0  0  0  0  0
   -1.7734   23.7635   15.4705 H   0  0  0  0  0  0  0  0  0  0  0  0
   -0.0633   25.1273   15.5234 H   0  0  0  0  0  0  0  0  0  0  0  0
    0.3738   24.6324   13.7886 H   0  0  0  0  0  0  0  0  0  0  0  0
   -1.5389   26.8476   14.5027 H   0  0  0  0  0  0  0  0  0  0  0  0
    0.2478   27.0361   14.1264 H   0  0  0  0  0  0  0  0  0  0  0  0
   -0.9070   25.5540   12.1190 H   0  0  0  0  0  0  0  0  0  0  0  0
   -2.9305   26.9939   13.1782 H   0  0  0  0  0  0  0  0  0  0  0  0
   -2.4587   27.8059   11.6469 H   0  0  0  0  0  0  0  0  0  0  0  0
   -2.8680   26.0569   11.6469 H   0  0  0  0  0  0  0  0  0  0  0  0
    0.6348   27.9249   12.3511 H   0  0  0  0  0  0  0  0  0  0  0  0
    0.5879   26.6921   11.0454 H   0  0  0  0  0  0  0  0  0  0  0  0
   -0.5929   28.0459   11.0454 H   0  0  0  0  0  0  0  0  0  0  0  0
   -3.1969   20.4378   13.4445 H   0  0  0  0  0  0  0  0  0  0  0  0
  1  2  1  0
  2  3  1  0
  3  4  2  0
  4  5  1  0
  5  6  2  0
  6  7  1  0
  7  8  1  0
  6  9  1  0
  9 10  1  0
 10 11  1  0
 11 12  1  0
 12 13  2  0
 12 14  1  0
 14 15  1  0
 15 16  1  0
 15 17  2  0
 17 18  1  0
 18 19  1  0
 18 20  1  0
 20 21  1  0
 11 22  2  0
 22 23  1  0
 22 24  1  0
 24 25  2  0
 24 26  1  0
 26 27  1  0
 27 28  1  0
 28 29  1  0
 29 30  1  0
 30 31  1  0
 30 32  1  0
  9 33  2  0
 33  3  1  0
 26 10  1  0
 20 14  2  0
  1 34  1  0
  1 35  1  0
  1 36  1  0
  4 37  1  0
  5 38  1  0
  8 39  1  0
  8 40  1  0
  8 41  1  0
 10 42  1  1
 16 43  1  0
 16 44  1  0
 16 45  1  0
 19 46  1  0
 19 47  1  0
 19 48  1  0
 21 49  1  0
 21 50  1  0
 21 51  1  0
 27 52  1  0
 27 53  1  0
 28 54  1  0
 28 55  1  0
 29 56  1  0
 29 57  1  0
 30 58  1  0
 31 59  1  0
 31 60  1  0
 31 61  1  0
 32 62  1  0
 32 63  1  0
 32 64  1  0
 33 65  1  0
M  CHG  2  23  -1  30   1
M  END
>  <vina_affinity>  (1) 
-6.136

$$$$
dec_C05034544
     RDKit          3D

 58 62  0  0  0  0  0  0  0  0999 V2000
   12.9650   24.0670    8.3190 C   0  0  0  0  0  0  0  0  0  0  0  0
   12.0300   23.6900    7.1830 C   0  0  0  0  0  0  0  0  0  0  0  0
   11.8950   24.7690    6.2610 O   0  0  0  0  0  0  0  0  0  0  0  0
   10.6710   25.0350    5.7100 C   0  0  0  0  0  0  0  0  0  0  0  0
    9.4670   25.1170    6.4140 C   0  0  0  0  0  0  0  0  0  0  0  0
    8.2750   25.4050    5.7370 C   0  0  0  0  0  0  0  0  0  0  0  0
    6.9910   25.4910    6.4650 C   0  0  0  0  0  0  0  0  0  0  0  0
    6.8700   26.1870    7.5520 N   0  0  0  0  0  0  0  0  0  0  0  0
    5.6280   26.2480    8.1400 N   0  0  0  0  0  0  0  0  0  0  0  0
    4.8340   27.3950    8.2150 C   0  0  0  0  0  0  0  0  0  0  0  0
    5.1290   28.4750    7.7090 O   0  0  0  0  0  0  0  0  0  0  0  0
    3.6210   27.2150    8.9770 C   0  0  0  0  0  0  0  0  0  0  0  0
    2.6710   28.1540    9.3320 C   0  0  0  0  0  0  0  0  0  0  0  0
    1.6830   27.4530   10.0670 C   0  0  0  0  0  0  0  0  0  0  0  0
    0.4250   28.0180   10.7040 C   0  0  1  0  0  0  0  0  0  0  0  0
   -0.6240   28.3650    9.6100 C   0  0  0  0  0  0  0  0  0  0  0  0
   -1.8930   28.9710   10.2360 C   0  0  2  0  0  0  0  0  0  0  0  0
   -1.5180   30.2520   10.9990 C   0  0  0  0  0  0  0  0  0  0  0  0
   -0.5120   29.9240   12.1140 C   0  0  1  0  0  0  0  0  0  0  0  0
   -1.1380   28.9080   13.0820 C   0  0  0  0  0  0  0  0  0  0  0  0
   -1.5080   27.6240   12.3250 C   0  0  1  0  0  0  0  0  0  0  0  0
   -2.5110   27.9600   11.2120 C   0  0  0  0  0  0  0  0  0  0  0  0
   -0.2400   27.0210   11.6980 C   0  0  0  0  0  0  0  0  0  0  0  0
    0.7570   29.3180   11.4900 C   0  0  0  0  0  0  0  0  0  0  0  0
    1.9880   26.1510   10.1460 N   0  0  0  0  0  0  0  0  0  0  0  0
    3.1300   26.0330    9.4560 N   0  0  0  0  0  0  0  0  0  0  0  0
    8.2730   25.6210    4.3570 C   0  0  0  0  0  0  0  0  0  0  0  0
    9.4710   25.5490    3.6470 C   0  0  0  0  0  0  0  0  0  0  0  0
   10.6560   25.2600    4.3240 C   0  0  0  0  0  0  0  0  0  0  0  0
   11.8330   25.1880    3.6250 O   0  0  0  0  0  0  0  0  0  0  0  0
   12.4713   23.8679    9.2816 H   0  0  0  0  0  0  0  0  0  0  0  0
   13.8863   23.4701    8.2491 H   0  0  0  0  0  0  0  0  0  0  0  0
   13.2146   25.1360    8.2491 H   0  0  0  0  0  0  0  0  0  0  0  0
   12.4367   22.8141    6.6564 H   0  0  0  0  0  0  0  0  0  0  0  0
   11.0400   23.4580    7.6026 H   0  0  0  0  0  0  0  0  0  0  0  0
    9.4551   24.9551    7.5020 H   0  0  0  0  0  0  0  0  0  0  0  0
    6.1161   24.9507    6.0743 H   0  0  0  0  0  0  0  0  0  0  0  0
    5.5360   25.5820    8.9000 H   0  0  0  0  0  0  0  0  0  0  0  0
    2.6801   29.2276    9.0926 H   0  0  0  0  0  0  0  0  0  0  0  0
   -0.1864   29.0913    8.9093 H   0  0  0  0  0  0  0  0  0  0  0  0
   -0.9003   27.4398    9.0830 H   0  0  0  0  0  0  0  0  0  0  0  0
   -2.6190   29.2099    9.4449 H   0  0  0  0  0  0  0  0  0  0  0  0
   -1.0664   30.9726   10.3013 H   0  0  0  0  0  0  0  0  0  0  0  0
   -2.4250   30.6844   11.4466 H   0  0  0  0  0  0  0  0  0  0  0  0
   -0.2533   30.8427   12.6608 H   0  0  0  0  0  0  0  0  0  0  0  0
   -0.4157   28.6679   13.8761 H   0  0  0  0  0  0  0  0  0  0  0  0
   -2.0467   29.3420   13.5246 H   0  0  0  0  0  0  0  0  0  0  0  0
   -1.9574   26.9016   13.0223 H   0  0  0  0  0  0  0  0  0  0  0  0
   -2.7722   27.0407   10.6673 H   0  0  0  0  0  0  0  0  0  0  0  0
   -3.4151   28.3975   11.6606 H   0  0  0  0  0  0  0  0  0  0  0  0
    0.4760   26.7801   12.4976 H   0  0  0  0  0  0  0  0  0  0  0  0
   -0.5227   26.1135   11.1444 H   0  0  0  0  0  0  0  0  0  0  0  0
    1.2044   30.0502   10.8017 H   0  0  0  0  0  0  0  0  0  0  0  0
    1.4605   29.0690   12.2981 H   0  0  0  0  0  0  0  0  0  0  0  0
    3.5150   25.1020    9.3360 H   0  0  0  0  0  0  0  0  0  0  0  0
    7.3322   25.8465    3.8335 H   0  0  0  0  0  0  0  0  0  0  0  0
    9.4816   25.7190    2.5603 H   0  0  0  0  0  0  0  0  0  0  0  0
   11.7390   25.6670    2.7880 H   0  0  0  0  0  0  0  0  0  0  0  0
  1  2  1  0
  2  3  1  0
  3  4  1  0
  4  5  2  0
  5  6  1  0
  6  7  1  0
  7  8  2  0
  8  9  1  0
  9 10  1  0
 10 11  2  0
 10 12  1  0
 12 13  2  0
 13 14  1  0
 15 14  1  6
 15 16  1  0
 16 17  1  0
 17 18  1  0
 18 19  1  0
 19 20  1  0
 20 21  1  0
 21 22  1  0
 21 23  1  0
 19 24  1  0
 14 25  2  0
 25 26  1  0
  6 27  2  0
 27 28  1  0
 28 29  2  0
 29 30  1  0
 29  4  1  0
 26 12  1  0
 23 15  1  0
 24 15  1  0
 22 17  1  0
  1 31  1  0
  1 32  1  0
  1 33  1  0
  2 34  1  0
  2 35  1  0
  5 36  1  0
  7 37  1  0
  9 38  1  0
 13 39  1  0
 16 40  1  0
 16 41  1  0
 17 42  1  6
 18 43  1  0
 18 44  1  0
 19 45  1  1
 20 46  1  0
 20 47  1  0
 21 48  1  1
 22 49  1  0
 22 50  1  0
 23 51  1  0
 23 52  1  0
 24 53  1  0
 24 54  1  0
 26 55  1  0
 27 56  1  0
 28 57  1  0
 30 58  1  0
M  END
>  <vina_affinity>  (1) 
-8.437

$$$$
dec_C67299267
     RDKit          3D

 44 47  0  0  0  0  0  0  0  0999 V2000
    2.8750   26.5220    9.8000 O   0  0  0  0  0  0  0  0  0  0  0  0
    2.6460   27.7010    9.5310 C   0  0  0  0  0  0  0  0  0  0  0  0
    3.5410   28.5580    8.9570 N   0  0  0  0  0  0  0  0  0  0  0  0
    4.7880   28.0600    8.4070 C   0  0  0  0  0  0  0  0  0  0  0  0
    4.5620   27.6630    6.9910 C   0  0  0  0  0  0  0  0  0  0  0  0
    4.1040   28.3500    5.8850 C   0  0  0  0  0  0  0  0  0  0  0  0
    4.1140   27.4310    4.8090 C   0  0  0  0  0  0  0  0  0  0  0  0
    4.5760   26.2420    5.3220 C   0  0  0  0  0  0  0  0  0  0  0  0
    4.8470   26.3690    6.6470 O   0  0  0  0  0  0  0  0  0  0  0  0
    1.2550   28.1940    9.7590 C   0  0  0  0  0  0  0  0  0  0  0  0
    0.7450   29.2460    9.1010 C   0  0  0  0  0  0  0  0  0  0  0  0
   -0.6170   29.6910    9.3640 C   0  0  0  0  0  0  0  0  0  0  0  0
   -1.1870   30.7710    8.6830 C   0  0  0  0  0  0  0  0  0  0  0  0
   -2.5010   31.1630    8.9610 C   0  0  0  0  0  0  0  0  0  0  0  0
   -3.2390   30.4710    9.9190 C   0  0  0  0  0  0  0  0  0  0  0  0
   -4.5200   30.8180   10.2200 O   0  0  0  0  0  0  0  0  0  0  0  0
   -2.6900   29.3970   10.6060 C   0  0  0  0  0  0  0  0  0  0  0  0
   -1.3820   29.0200   10.3180 C   0  0  0  0  0  0  0  0  0  0  0  0
   -0.8520   27.9350   11.0390 O   0  0  0  0  0  0  0  0  0  0  0  0
    0.4400   27.5290   10.8020 C   0  0  0  0  0  0  0  0  0  0  0  0
    0.8650   26.5770   11.5530 N   0  0  0  0  0  0  0  0  0  0  0  0
    0.0980   25.9230   12.6260 C   0  0  0  0  0  0  0  0  0  0  0  0
   -0.3950   26.6670   13.7010 C   0  0  0  0  0  0  0  0  0  0  0  0
   -1.1490   26.0230   14.6780 C   0  0  0  0  0  0  0  0  0  0  0  0
   -1.6150   26.7340   15.7110 F   0  0  0  0  0  0  0  0  0  0  0  0
   -1.4300   24.6640   14.5970 C   0  0  0  0  0  0  0  0  0  0  0  0
   -0.9570   23.9230   13.5130 C   0  0  0  0  0  0  0  0  0  0  0  0
   -0.1990   24.5530   12.5230 C   0  0  0  0  0  0  0  0  0  0  0  0
    0.3610   23.6060   11.1920 Cl  0  0  0  0  0  0  0  0  0  0  0  0
    3.2270   29.4360    8.5670 H   0  0  0  0  0  0  0  0  0  0  0  0
    5.5533   28.8488    8.4523 H   0  0  0  0  0  0  0  0  0  0  0  0
    5.1331   27.1922    8.9883 H   0  0  0  0  0  0  0  0  0  0  0  0
    3.7925   29.4043    5.8474 H   0  0  0  0  0  0  0  0  0  0  0  0
    3.8124   27.6285    3.7697 H   0  0  0  0  0  0  0  0  0  0  0  0
    4.7077   25.3174    4.7409 H   0  0  0  0  0  0  0  0  0  0  0  0
    1.3592   29.7760    8.3581 H   0  0  0  0  0  0  0  0  0  0  0  0
   -0.6009   31.3138    7.9268 H   0  0  0  0  0  0  0  0  0  0  0  0
   -2.9492   32.0132    8.4259 H   0  0  0  0  0  0  0  0  0  0  0  0
   -4.9200   31.2810    9.4630 H   0  0  0  0  0  0  0  0  0  0  0  0
   -3.2768   28.8552   11.3624 H   0  0  0  0  0  0  0  0  0  0  0  0
    1.8660   26.3270   11.4990 H   0  0  0  0  0  0  0  0  0  0  0  0
   -0.1904   27.7453   13.7742 H   0  0  0  0  0  0  0  0  0  0  0  0
   -2.0227   24.1747   15.3840 H   0  0  0  0  0  0  0  0  0  0  0  0
   -1.1799   22.8484   13.4386 H   0  0  0  0  0  0  0  0  0  0  0  0
  1  2  2  0
  2  3  1  0
  3  4  1  0
  4  5  1  0
  5  6  2  0
  6  7  1  0
  7  8  2  0
  8  9  1  0
  2 10  1  0
 10 11  2  0
 11 12  1  0
 12 13  2  0
 13 14  1  0
 14 15  2  0
 15 16  1  0
 15 17  1  0
 17 18  2  0
 18 19  1  0
 19 20  1  0
 20 21  2  0
 21 22  1  0
 22 23  2  0
 23 24  1  0
 24 25  1  0
 24 26  2  0
 26 27  1  0
 27 28  2  0
 28 29  1  0
  9  5  1  0
 20 10  1  0
 28 22  1  0
 18 12  1  0
  3 30  1  0
  4 31  1  0
  4 32  1  0
  6 33  1  0
  7 34  1  0
  8 35  1  0
 11 36  1  0
 13 37  1  0
 14 38  1  0
 16 39  1  0
 17 40  1  0
 21 41  1  0
 23 42  1  0
 26 43  1  0
 27 44  1  0
M  CHG  1  21   1
M  END
>  <vina_affinity>  (1) 
-9.638

$$$$
dec_C58421698
     RDKit          3D

 42 43  0  0  0  0  0  0  0  0999 V2000
   -2.2640   32.6290   10.8280 C   0  0  0  0  0  0  0  0  0  0  0  0
   -2.4730   31.9840    9.5700 O   0  0  0  0  0  0  0  0  0  0  0  0
   -1.4650   31.0810    9.3260 C   0  0  0  0  0  0  0  0  0  0  0  0
   -1.6200   29.7670    9.7770 C   0  0  0  0  0  0  0  0  0  0  0  0
   -2.8490   29.2980   10.4900 C   0  0  0  0  0  0  0  0  0  0  0  0
   -0.5880   28.8880    9.4960 C   0  0  0  0  0  0  0  0  0  0  0  0
    0.5470   29.2310    8.8500 N   0  0  0  0  0  0  0  0  0  0  0  0
    0.6920   30.5250    8.4550 C   0  0  0  0  0  0  0  0  0  0  0  0
    2.0020   30.8540    7.7750 C   0  0  0  0  0  0  0  0  0  0  0  0
    2.5930   29.6830    7.1690 N   0  0  0  0  0  0  0  0  0  0  0  0
    3.7980   29.1760    7.5810 C   0  0  0  0  0  0  0  0  0  0  0  0
    4.3750   29.5840    8.5860 O   0  0  0  0  0  0  0  0  0  0  0  0
    4.4010   28.0810    6.7560 C   0  0  0  0  0  0  0  0  0  0  0  0
    4.0670   28.0590    5.3900 C   0  0  0  0  0  0  0  0  0  0  0  0
    4.5830   27.0840    4.5240 C   0  0  0  0  0  0  0  0  0  0  0  0
    4.1830   27.0680    3.0770 C   0  0  0  0  0  0  0  0  0  0  0  0
    5.4280   26.0980    5.0400 C   0  0  0  0  0  0  0  0  0  0  0  0
    5.7640   26.1050    6.3950 C   0  0  0  0  0  0  0  0  0  0  0  0
    6.9190   24.7470    7.0460 Br  0  0  0  0  0  0  0  0  0  0  0  0
    5.2580   27.0890    7.2550 C   0  0  0  0  0  0  0  0  0  0  0  0
    5.6000   27.0680    8.5860 O   0  0  0  0  0  0  0  0  0  0  0  0
   -0.2800   31.5040    8.7060 C   0  0  0  0  0  0  0  0  0  0  0  0
   -0.0730   32.9350    8.3010 C   0  0  0  0  0  0  0  0  0  0  0  0
   -2.4918   31.9260   11.6428 H   0  0  0  0  0  0  0  0  0  0  0  0
   -1.2153   32.9519   10.9048 H   0  0  0  0  0  0  0  0  0  0  0  0
   -2.9241   33.5056   10.9048 H   0  0  0  0  0  0  0  0  0  0  0  0
   -2.6885   29.3593   11.5765 H   0  0  0  0  0  0  0  0  0  0  0  0
   -3.7013   29.9341   10.2088 H   0  0  0  0  0  0  0  0  0  0  0  0
   -3.0608   28.2558   10.2088 H   0  0  0  0  0  0  0  0  0  0  0  0
   -0.6999   27.8427    9.8199 H   0  0  0  0  0  0  0  0  0  0  0  0
    1.8201   31.6072    6.9943 H   0  0  0  0  0  0  0  0  0  0  0  0
    2.6984   31.2379    8.5350 H   0  0  0  0  0  0  0  0  0  0  0  0
    2.2480   29.4060    6.2530 H   0  0  0  0  0  0  0  0  0  0  0  0
    3.3850   28.8245    4.9915 H   0  0  0  0  0  0  0  0  0  0  0  0
    3.0866   27.0241    3.0001 H   0  0  0  0  0  0  0  0  0  0  0  0
    4.5488   27.9815    2.5853 H   0  0  0  0  0  0  0  0  0  0  0  0
    4.6206   26.1866    2.5853 H   0  0  0  0  0  0  0  0  0  0  0  0
    5.8286   25.3159    4.3783 H   0  0  0  0  0  0  0  0  0  0  0  0
    4.8660   27.4740    9.0870 H   0  0  0  0  0  0  0  0  0  0  0  0
    0.0176   33.5613    9.2008 H   0  0  0  0  0  0  0  0  0  0  0  0
    0.8464   33.0174    7.7028 H   0  0  0  0  0  0  0  0  0  0  0  0
   -0.9314   33.2746    7.7028 H   0  0  0  0  0  0  0  0  0  0  0  0
  1  2  1  0
  2  3  1  0
  3  4  2  0
  4  5  1  0
  4  6  1  0
  6  7  2  0
  7  8  1  0
  8  9  1  0
  9 10  1  0
 10 11  1  0
 11 12  2  0
 11 13  1  0
 13 14  2  0
 14 15  1  0
 15 16  1  0
 15 17  2  0
 17 18  1  0
 18 19  1  0
 18 20  2  0
 20 21  1  0
  8 22  2  0
 22 23  1  0
 22  3  1  0
 20 13  1  0
  1 24  1  0
  1 25  1  0
  1 26  1  0
  5 27  1  0
  5 28  1  0
  5 29  1  0
  6 30  1  0
  9 31  1  0
  9 32  1  0
 10 33  1  0
 14 34  1  0
 16 35  1  0
 16 36  1  0
 16 37  1  0
 17 38  1  0
 21 39  1  0
 23 40  1  0
 23 41  1  0
 23 42  1  0
M  END
>  <vina_affinity>  (1) 
-8.139

$$$$
dec_C20852270
     RDKit          3D

 43 45  0  0  0  0  0  0  0  0999 V2000
    1.7330   30.4050    7.8360 C   0  0  0  0  0  0  0  0  0  0  0  0
    0.3590   30.4420    8.4360 C   0  0  0  0  0  0  0  0  0  0  0  0
   -0.3990   31.6100    8.4010 C   0  0  0  0  0  0  0  0  0  0  0  0
   -1.6700   31.6340    8.9740 C   0  0  0  0  0  0  0  0  0  0  0  0
   -2.2150   30.5020    9.6110 C   0  0  0  0  0  0  0  0  0  0  0  0
   -3.6380   30.6180   10.0820 C   0  0  0  0  0  0  0  0  0  0  0  0
   -1.4220   29.3480    9.7250 C   0  0  0  0  0  0  0  0  0  0  0  0
   -1.7810   28.1490   10.3790 N   0  0  0  0  0  0  0  0  0  0  0  0
   -1.7180   27.8540   11.7300 C   0  0  0  0  0  0  0  0  0  0  0  0
   -1.3100   28.5900   12.6230 O   0  0  0  0  0  0  0  0  0  0  0  0
   -2.2160   26.4280   12.0590 C   0  0  1  0  0  0  0  0  0  0  0  0
   -1.8200   25.4410   11.0750 N   0  0  0  0  0  0  0  0  0  0  0  0
   -0.7760   24.6550   11.5020 C   0  0  0  0  0  0  0  0  0  0  0  0
   -0.2550   23.7800   10.8360 O   0  0  0  0  0  0  0  0  0  0  0  0
   -0.3690   25.1000   12.8810 C   0  0  0  0  0  0  0  0  0  0  0  0
   -1.5740   25.9260   13.3650 C   0  0  2  0  0  0  0  0  0  0  0  0
   -2.5860   25.1720   14.2160 C   0  0  0  0  0  0  0  0  0  0  0  0
   -2.2610   24.0320   14.9670 C   0  0  0  0  0  0  0  0  0  0  0  0
   -3.2380   23.3650   15.7100 C   0  0  0  0  0  0  0  0  0  0  0  0
   -4.5540   23.8220   15.7090 C   0  0  0  0  0  0  0  0  0  0  0  0
   -4.8950   24.9450   14.9610 C   0  0  0  0  0  0  0  0  0  0  0  0
   -3.9200   25.6130   14.2190 C   0  0  0  0  0  0  0  0  0  0  0  0
   -0.1590   29.3240    9.1030 C   0  0  0  0  0  0  0  0  0  0  0  0
    2.4837   30.3848    8.6398 H   0  0  0  0  0  0  0  0  0  0  0  0
    1.8374   29.5037    7.2141 H   0  0  0  0  0  0  0  0  0  0  0  0
    1.8857   31.2994    7.2141 H   0  0  0  0  0  0  0  0  0  0  0  0
    0.0051   32.5136    7.9213 H   0  0  0  0  0  0  0  0  0  0  0  0
   -2.2618   32.5600    8.9274 H   0  0  0  0  0  0  0  0  0  0  0  0
   -3.6612   30.6199   11.1818 H   0  0  0  0  0  0  0  0  0  0  0  0
   -4.0740   31.5547    9.7044 H   0  0  0  0  0  0  0  0  0  0  0  0
   -4.2199   29.7643    9.7044 H   0  0  0  0  0  0  0  0  0  0  0  0
   -1.8410   27.3260    9.7880 H   0  0  0  0  0  0  0  0  0  0  0  0
   -3.3111   26.5198   12.1062 H   0  0  0  0  0  0  0  0  0  0  0  0
   -2.2980   25.2630   10.1990 H   0  0  0  0  0  0  0  0  0  0  0  0
   -0.1966   24.2348   13.5380 H   0  0  0  0  0  0  0  0  0  0  0  0
    0.5707   25.6717   12.8857 H   0  0  0  0  0  0  0  0  0  0  0  0
   -1.2370   26.7218   14.0456 H   0  0  0  0  0  0  0  0  0  0  0  0
   -1.2259   23.6597   14.9707 H   0  0  0  0  0  0  0  0  0  0  0  0
   -2.9672   22.4757   16.2980 H   0  0  0  0  0  0  0  0  0  0  0  0
   -5.3210   23.2971   16.2974 H   0  0  0  0  0  0  0  0  0  0  0  0
   -5.9339   25.3064   14.9547 H   0  0  0  0  0  0  0  0  0  0  0  0
   -4.1999   26.4975   13.6280 H   0  0  0  0  0  0  0  0  0  0  0  0
    0.4382   28.4010    9.1419 H   0  0  0  0  0  0  0  0  0  0  0  0
  1  2  1  0
  2  3  2  0
  3  4  1  0
  4  5  2  0
  5  6  1  0
  5  7  1  0
  7  8  1  0
  8  9  1  0
  9 10  2  0
  9 11  1  0
 11 12  1  0
 12 13  1  0
 13 14  2  0
 13 15  1  0
 15 16  1  0
 16 17  1  0
 17 18  2  0
 18 19  1  0
 19 20  2  0
 20 21  1  0
 21 22  2  0
  7 23  2  0
 23  2  1  0
 16 11  1  0
 22 17  1  0
  1 24  1  0
  1 25  1  0
  1 26  1  0
  3 27  1  0
  4 28  1  0
  6 29  1  0
  6 30  1  0
  6 31  1  0
  8 32  1  0
 11 33  1  1
 12 34  1  0
 15 35  1  0
 15 36  1  0
 16 37  1  1
 18 38  1  0
 19 39  1  0
 20 40  1  0
 21 41  1  0
 22 42  1  0
 23 43  1  0
M  END
>  <vina_affinity>  (1) 
-8.793

$$$$
dec_C08384635
     RDKit          3D

 55 57  0  0  0  0  0  0  0  0999 V2000
   -4.8410   21.8120   17.5450 C   0  0  0  0  0  0  0  0  0  0  0  0
   -3.8350   20.7350   17.1740 C   0  0  0  0  0  0  0  0  0  0  0  0
   -2.5360   21.2310   17.4850 O   0  0  0  0  0  0  0  0  0  0  0  0
   -1.6500   21.4500   16.4630 C   0  0  0  0  0  0  0  0  0  0  0  0
   -0.7310   20.3980   16.3240 C   0  0  0  0  0  0  0  0  0  0  0  0
    0.2520   20.4330   15.3390 C   0  0  0  0  0  0  0  0  0  0  0  0
    1.4740   19.0000   15.1790 Br  0  0  0  0  0  0  0  0  0  0  0  0
    0.3420   21.5160   14.4720 C   0  0  0  0  0  0  0  0  0  0  0  0
   -0.5660   22.5710   14.5990 C   0  0  0  0  0  0  0  0  0  0  0  0
   -0.4200   23.6950   13.6490 C   0  0  0  0  0  0  0  0  0  0  0  0
   -0.2720   24.9080   14.0760 N   0  0  0  0  0  0  0  0  0  0  0  0
   -0.1480   25.8510   13.0990 N   0  0  0  0  0  0  0  0  0  0  0  0
   -0.7000   27.0970   13.2630 C   0  0  0  0  0  0  0  0  0  0  0  0
   -1.3120   27.4120   14.2890 O   0  0  0  0  0  0  0  0  0  0  0  0
   -0.5300   28.1050   12.1300 C   0  0  0  0  0  0  0  0  0  0  0  0
   -1.5990   28.9230   11.9810 C   0  0  0  0  0  0  0  0  0  0  0  0
   -1.7320   29.9700   10.9630 C   0  0  0  0  0  0  0  0  0  0  0  0
   -2.8210   29.9560   10.0860 C   0  0  0  0  0  0  0  0  0  0  0  0
   -2.9270   30.9250    9.0870 C   0  0  0  0  0  0  0  0  0  0  0  0
   -1.9450   31.9070    8.9610 C   0  0  0  0  0  0  0  0  0  0  0  0
   -0.8580   31.9260    9.8340 C   0  0  0  0  0  0  0  0  0  0  0  0
   -0.7500   30.9590   10.8350 C   0  0  0  0  0  0  0  0  0  0  0  0
    0.5440   28.2430   11.2560 N   0  0  0  0  0  0  0  0  0  0  0  0
    1.0790   27.4090   10.3010 C   0  0  0  0  0  0  0  0  0  0  0  0
    0.7450   26.2500   10.0880 O   0  0  0  0  0  0  0  0  0  0  0  0
    2.1980   27.9890    9.5040 C   0  0  0  0  0  0  0  0  0  0  0  0
    2.0240   29.2560    8.9350 C   0  0  0  0  0  0  0  0  0  0  0  0
    3.0490   29.8320    8.1810 C   0  0  0  0  0  0  0  0  0  0  0  0
    4.2520   29.1480    8.0030 C   0  0  0  0  0  0  0  0  0  0  0  0
    4.4370   27.8930    8.5830 C   0  0  0  0  0  0  0  0  0  0  0  0
    3.4150   27.3120    9.3370 C   0  0  0  0  0  0  0  0  0  0  0  0
   -1.5660   22.5470   15.5920 C   0  0  0  0  0  0  0  0  0  0  0  0
   -2.4550   23.5840   15.7130 O   0  0  0  0  0  0  0  0  0  0  0  0
   -4.9109   21.8868   18.6402 H   0  0  0  0  0  0  0  0  0  0  0  0
   -4.5138   22.7774   17.1317 H   0  0  0  0  0  0  0  0  0  0  0  0
   -5.8265   21.5513   17.1317 H   0  0  0  0  0  0  0  0  0  0  0  0
   -4.0351   19.8204   17.7514 H   0  0  0  0  0  0  0  0  0  0  0  0
   -3.9085   20.4908   16.1040 H   0  0  0  0  0  0  0  0  0  0  0  0
   -0.7884   19.5342   17.0027 H   0  0  0  0  0  0  0  0  0  0  0  0
    1.1195   21.5424   13.6943 H   0  0  0  0  0  0  0  0  0  0  0  0
   -0.4374   23.4979   12.5669 H   0  0  0  0  0  0  0  0  0  0  0  0
    0.3360   25.6120   12.2340 H   0  0  0  0  0  0  0  0  0  0  0  0
   -2.4368   28.7911   12.6815 H   0  0  0  0  0  0  0  0  0  0  0  0
   -3.5950   29.1805   10.1835 H   0  0  0  0  0  0  0  0  0  0  0  0
   -3.7852   30.9140    8.3990 H   0  0  0  0  0  0  0  0  0  0  0  0
   -2.0281   32.6682    8.1713 H   0  0  0  0  0  0  0  0  0  0  0  0
   -0.0857   32.7028    9.7340 H   0  0  0  0  0  0  0  0  0  0  0  0
    0.1076   30.9743   11.5237 H   0  0  0  0  0  0  0  0  0  0  0  0
    1.0530   29.1110   11.3810 H   0  0  0  0  0  0  0  0  0  0  0  0
    1.0786   29.7989    9.0819 H   0  0  0  0  0  0  0  0  0  0  0  0
    2.9079   30.8243    7.7278 H   0  0  0  0  0  0  0  0  0  0  0  0
    5.0565   29.5995    7.4038 H   0  0  0  0  0  0  0  0  0  0  0  0
    5.3895   27.3600    8.4463 H   0  0  0  0  0  0  0  0  0  0  0  0
    3.5643   26.3250    9.7992 H   0  0  0  0  0  0  0  0  0  0  0  0
   -2.1410   24.3470   15.1730 H   0  0  0  0  0  0  0  0  0  0  0  0
  1  2  1  0
  2  3  1  0
  3  4  1  0
  4  5  2  0
  5  6  1  0
  6  7  1  0
  6  8  2  0
  8  9  1  0
  9 10  1  0
 10 11  2  0
 11 12  1  0
 12 13  1  0
 13 14  2  0
 13 15  1  0
 15 16  2  0
 16 17  1  0
 17 18  2  0
 18 19  1  0
 19 20  2  0
 20 21  1  0
 21 22  2  0
 15 23  1  0
 23 24  1  0
 24 25  2  0
 24 26  1  0
 26 27  2  0
 27 28  1  0
 28 29  2  0
 29 30  1  0
 30 31  2  0
  9 32  2  0
 32 33  1  0
 32  4  1  0
 22 17  1  0
 31 26  1  0
  1 34  1  0
  1 35  1  0
  1 36  1  0
  2 37  1  0
  2 38  1  0
  5 39  1  0
  8 40  1  0
 10 41  1  0
 12 42  1  0
 16 43  1  0
 18 44  1  0
 19 45  1  0
 20 46  1  0
 21 47  1  0
 22 48  1  0
 23 49  1  0
 27 50  1  0
 28 51  1  0
 29 52  1  0
 30 53  1  0
 31 54  1  0
 33 55  1  0
M  END
>  <vina_affinity>  (1) 
-8.809

$$$$
dec_C20889161
     RDKit          3D

 58 61  0  0  0  0  0  0  0  0999 V2000
    1.4900   30.7840    6.7140 C   0  0  0  0  0  0  0  0  0  0  0  0
    1.4590   30.5680    8.2300 C   0  0  2  0  0  0  0  0  0  0  0  0
    1.9800   29.2310    8.5060 N   0  0  0  0  0  0  0  0  0  0  0  0
    3.3270   28.9340    8.5290 C   0  0  0  0  0  0  0  0  0  0  0  0
    4.2060   29.7290    8.2070 O   0  0  0  0  0  0  0  0  0  0  0  0
    3.6470   27.5180    9.0080 C   0  0  0  0  0  0  0  0  0  0  0  0
    2.8860   27.1620   10.1660 O   0  0  0  0  0  0  0  0  0  0  0  0
    2.2220   25.9850   10.0820 C   0  0  0  0  0  0  0  0  0  0  0  0
    2.6530   24.9670    9.5620 O   0  0  0  0  0  0  0  0  0  0  0  0
    0.8590   26.1020   10.6670 C   0  0  0  0  0  0  0  0  0  0  0  0
   -0.1970   25.2680   10.2860 C   0  0  0  0  0  0  0  0  0  0  0  0
   -1.4530   25.4050   10.8890 C   0  0  0  0  0  0  0  0  0  0  0  0
   -1.6720   26.3740   11.8740 C   0  0  0  0  0  0  0  0  0  0  0  0
   -2.9600   26.4410   12.4390 N   0  0  0  0  0  0  0  0  0  0  0  0
   -3.3680   25.9430   13.6470 C   0  0  0  0  0  0  0  0  0  0  0  0
   -4.7090   26.1260   13.8400 N   0  0  0  0  0  0  0  0  0  0  0  0
   -2.7010   25.3980   14.5120 O   0  0  0  0  0  0  0  0  0  0  0  0
   -0.6150   27.2010   12.2560 C   0  0  0  0  0  0  0  0  0  0  0  0
    0.6430   27.0680   11.6560 C   0  0  0  0  0  0  0  0  0  0  0  0
    0.0570   30.7990    8.8970 C   0  0  1  0  0  0  0  0  0  0  0  0
   -0.4520   32.2590    8.7360 C   0  0  0  0  0  0  0  0  0  0  0  0
   -1.8310   32.4400    9.3970 C   0  0  2  0  0  0  0  0  0  0  0  0
   -1.7220   32.1180   10.8950 C   0  0  0  0  0  0  0  0  0  0  0  0
   -1.2560   30.6650   11.0850 C   0  0  1  0  0  0  0  0  0  0  0  0
   -2.2680   29.7170   10.4300 C   0  0  0  0  0  0  0  0  0  0  0  0
   -2.3820   30.0300    8.9330 C   0  0  1  0  0  0  0  0  0  0  0  0
   -2.8420   31.4840    8.7460 C   0  0  0  0  0  0  0  0  0  0  0  0
   -1.0070   29.8490    8.2700 C   0  0  0  0  0  0  0  0  0  0  0  0
    0.1200   30.4850   10.4200 C   0  0  0  0  0  0  0  0  0  0  0  0
    1.6433   31.8518    6.4988 H   0  0  0  0  0  0  0  0  0  0  0  0
    2.3135   30.2001    6.2772 H   0  0  0  0  0  0  0  0  0  0  0  0
    0.5355   30.4553    6.2772 H   0  0  0  0  0  0  0  0  0  0  0  0
    2.0937   31.3384    8.6921 H   0  0  0  0  0  0  0  0  0  0  0  0
    1.3410   28.5370    8.8960 H   0  0  0  0  0  0  0  0  0  0  0  0
    3.4171   26.8086    8.1994 H   0  0  0  0  0  0  0  0  0  0  0  0
    4.7132   27.4815    9.2762 H   0  0  0  0  0  0  0  0  0  0  0  0
   -0.0404   24.5030    9.5112 H   0  0  0  0  0  0  0  0  0  0  0  0
   -2.2772   24.7431   10.5848 H   0  0  0  0  0  0  0  0  0  0  0  0
   -3.6340   27.0330   11.9770 H   0  0  0  0  0  0  0  0  0  0  0  0
   -5.0260   25.6780   14.6930 H   0  0  0  0  0  0  0  0  0  0  0  0
   -5.3030   25.9370   13.0460 H   0  0  0  0  0  0  0  0  0  0  0  0
   -0.7712   27.9628   13.0340 H   0  0  0  0  0  0  0  0  0  0  0  0
    1.4675   27.7277   11.9643 H   0  0  0  0  0  0  0  0  0  0  0  0
    0.2664   32.9444    9.2095 H   0  0  0  0  0  0  0  0  0  0  0  0
   -0.5467   32.4802    7.6626 H   0  0  0  0  0  0  0  0  0  0  0  0
   -2.1682   33.4785    9.2634 H   0  0  0  0  0  0  0  0  0  0  0  0
   -0.9949   32.7984   11.3624 H   0  0  0  0  0  0  0  0  0  0  0  0
   -2.7077   32.2469   11.3660 H   0  0  0  0  0  0  0  0  0  0  0  0
   -1.1809   30.4359   12.1583 H   0  0  0  0  0  0  0  0  0  0  0  0
   -1.9322   28.6777   10.5609 H   0  0  0  0  0  0  0  0  0  0  0  0
   -3.2511   29.8522   10.9045 H   0  0  0  0  0  0  0  0  0  0  0  0
   -3.1121   29.3489    8.4715 H   0  0  0  0  0  0  0  0  0  0  0  0
   -2.9160   31.7078    7.6716 H   0  0  0  0  0  0  0  0  0  0  0  0
   -3.8247   31.6171    9.2221 H   0  0  0  0  0  0  0  0  0  0  0  0
   -0.6797   28.8074    8.4038 H   0  0  0  0  0  0  0  0  0  0  0  0
   -1.1031   30.0943    7.2020 H   0  0  0  0  0  0  0  0  0  0  0  0
    0.8403   31.1660   10.8968 H   0  0  0  0  0  0  0  0  0  0  0  0
    0.4324   29.4379   10.5461 H   0  0  0  0  0  0  0  0  0  0  0  0
  1  2  1  0
  2  3  1  0
  3  4  1  0
  4  5  2  0
  4  6  1  0
  6  7  1  0
  7  8  1  0
  8  9  2  0
  8 10  1  0
 10 11  2  0
 11 12  1  0
 12 13  2  0
 13 14  1  0
 14 15  1  0
 15 16  1  0
 15 17  2  0
 13 18  1  0
 18 19  2  0
  2 20  1  0
 20 21  1  1
 21 22  1  0
 22 23  1  0
 23 24  1  0
 24 25  1  0
 25 26  1  0
 26 27  1  0
 26 28  1  0
 24 29  1  0
 19 10  1  0
 28 20  1  0
 29 20  1  0
 27 22  1  0
  1 30  1  0
  1 31  1  0
  1 32  1  0
  2 33  1  1
  3 34  1  0
  6 35  1  0
  6 36  1  0
 11 37  1  0
 12 38  1  0
 14 39  1  0
 16 40  1  0
 16 41  1  0
 18 42  1  0
 19 43  1  0
 21 44  1  0
 21 45  1  0
 22 46  1  1
 23 47  1  0
 23 48  1  0
 24 49  1  1
 25 50  1  0
 25 51  1  0
 26 52  1  6
 27 53  1  0
 27 54  1  0
 28 55  1  0
 28 56  1  0
 29 57  1  0
 29 58  1  0
M  END
>  <vina_affinity>  (1) 
-8.166

$$$$
dec_C09336983
     RDKit          3D

 58 60  0  0  0  0  0  0  0  0999 V2000
    1.4780   31.6100    7.0830 C   0  0  0  0  0  0  0  0  0  0  0  0
    0.8520   30.6870    8.0720 C   0  0  0  0  0  0  0  0  0  0  0  0
   -0.4230   30.7230    8.5920 C   0  0  0  0  0  0  0  0  0  0  0  0
   -0.6570   29.6710    9.5280 C   0  0  0  0  0  0  0  0  0  0  0  0
    0.4480   28.8530    9.6930 C   0  0  0  0  0  0  0  0  0  0  0  0
    0.6360   27.6790   10.5320 C   0  0  0  0  0  0  0  0  0  0  0  0
    0.0750   27.4950   11.6150 O   0  0  0  0  0  0  0  0  0  0  0  0
    1.5690   26.7660   10.0800 N   0  0  0  0  0  0  0  0  0  0  0  0
    1.8510   25.5460   10.8160 C   0  0  0  0  0  0  0  0  0  0  0  0
    2.8020   24.6560   10.0120 C   0  0  0  0  0  0  0  0  0  0  0  0
    2.9340   23.4510   10.2110 O   0  0  0  0  0  0  0  0  0  0  0  0
    3.4260   25.3030    8.9620 N   0  0  0  0  0  0  0  0  0  0  0  0
    4.2750   24.5990    8.0280 C   0  0  0  0  0  0  0  0  0  0  0  0
    4.7320   25.4160    6.7680 C   0  0  0  0  0  0  0  0  0  0  0  0
    6.2900   25.2160    6.5650 N   0  0  0  0  0  0  0  0  0  0  0  0
    7.1650   25.8220    7.6440 C   0  0  0  0  0  0  0  0  0  0  0  0
    8.5940   25.9430    7.1210 C   0  0  0  0  0  0  0  0  0  0  0  0
    9.0220   24.7720    6.2400 C   0  0  0  0  0  0  0  0  0  0  0  0
    8.1900   23.5340    6.5330 C   0  0  0  0  0  0  0  0  0  0  0  0
    6.7010   23.7670    6.2810 C   0  0  0  0  0  0  0  0  0  0  0  0
    4.0040   25.0020    5.4580 C   0  0  0  0  0  0  0  0  0  0  0  0
    4.3600   25.8740    4.2500 C   0  0  0  0  0  0  0  0  0  0  0  0
    4.1040   27.3500    4.5270 C   0  0  0  0  0  0  0  0  0  0  0  0
    4.7880   27.8220    5.8060 C   0  0  0  0  0  0  0  0  0  0  0  0
    4.4380   26.9270    6.9960 C   0  0  0  0  0  0  0  0  0  0  0  0
    1.7550   29.3870    8.7160 S   0  0  0  0  0  0  0  0  0  0  0  0
    2.0182   32.4065    7.6157 H   0  0  0  0  0  0  0  0  0  0  0  0
    2.1822   31.0482    6.4518 H   0  0  0  0  0  0  0  0  0  0  0  0
    0.6956   32.0564    6.4518 H   0  0  0  0  0  0  0  0  0  0  0  0
   -1.1754   31.4769    8.3172 H   0  0  0  0  0  0  0  0  0  0  0  0
   -1.6093   29.5262   10.0592 H   0  0  0  0  0  0  0  0  0  0  0  0
    2.1360   26.9740    9.2700 H   0  0  0  0  0  0  0  0  0  0  0  0
    2.3179   25.8013   11.7787 H   0  0  0  0  0  0  0  0  0  0  0  0
    0.9098   25.0038   10.9893 H   0  0  0  0  0  0  0  0  0  0  0  0
    3.0460   26.2220    8.7120 H   0  0  0  0  0  0  0  0  0  0  0  0
    5.1782   24.2792    8.5683 H   0  0  0  0  0  0  0  0  0  0  0  0
    3.6670   23.7684    7.6402 H   0  0  0  0  0  0  0  0  0  0  0  0
    6.5200   25.7280    5.7070 H   0  0  0  0  0  0  0  0  0  0  0  0
    6.7845   26.8194    7.9094 H   0  0  0  0  0  0  0  0  0  0  0  0
    7.1509   25.1789    8.5363 H   0  0  0  0  0  0  0  0  0  0  0  0
    8.6717   26.8685    6.5316 H   0  0  0  0  0  0  0  0  0  0  0  0
    9.2594   25.9486    7.9969 H   0  0  0  0  0  0  0  0  0  0  0  0
    8.8918   25.0506    5.1839 H   0  0  0  0  0  0  0  0  0  0  0  0
   10.0767   24.5424    6.4521 H   0  0  0  0  0  0  0  0  0  0  0  0
    8.5348   22.7140    5.8859 H   0  0  0  0  0  0  0  0  0  0  0  0
    8.3178   23.2849    7.5968 H   0  0  0  0  0  0  0  0  0  0  0  0
    6.4782   23.5344    5.2292 H   0  0  0  0  0  0  0  0  0  0  0  0
    6.1351   23.1139    6.9616 H   0  0  0  0  0  0  0  0  0  0  0  0
    4.2735   23.9611    5.2257 H   0  0  0  0  0  0  0  0  0  0  0  0
    2.9261   25.1282    5.6373 H   0  0  0  0  0  0  0  0  0  0  0  0
    5.4248   25.7353    4.0114 H   0  0  0  0  0  0  0  0  0  0  0  0
    3.7244   25.5677    3.4061 H   0  0  0  0  0  0  0  0  0  0  0  0
    4.4865   27.9409    3.6817 H   0  0  0  0  0  0  0  0  0  0  0  0
    3.0199   27.4875    4.6527 H   0  0  0  0  0  0  0  0  0  0  0  0
    5.8775   27.8051    5.6551 H   0  0  0  0  0  0  0  0  0  0  0  0
    4.4373   28.8408    6.0274 H   0  0  0  0  0  0  0  0  0  0  0  0
    5.0223   27.2646    7.8647 H   0  0  0  0  0  0  0  0  0  0  0  0
    3.3526   27.0174    7.1501 H   0  0  0  0  0  0  0  0  0  0  0  0
  1  2  1  0
  2  3  2  0
  3  4  1  0
  4  5  2  0
  5  6  1  0
  6  7  2  0
  6  8  1  0
  8  9  1  0
  9 10  1  0
 10 11  2  0
 10 12  1  0
 12 13  1  0
 13 14  1  0
 14 15  1  0
 15 16  1  0
 16 17  1  0
 17 18  1  0
 18 19  1  0
 19 20  1  0
 14 21  1  0
 21 22  1  0
 22 23  1  0
 23 24  1  0
 24 25  1  0
  5 26  1  0
 26  2  1  0
 25 14  1  0
 20 15  1  0
  1 27  1  0
  1 28  1  0
  1 29  1  0
  3 30  1  0
  4 31  1  0
  8 32  1  0
  9 33  1  0
  9 34  1  0
 12 35  1  0
 13 36  1  0
 13 37  1  0
 15 38  1  0
 16 39  1  0
 16 40  1  0
 17 41  1  0
 17 42  1  0
 18 43  1  0
 18 44  1  0
 19 45  1  0
 19 46  1  0
 20 47  1  0
 20 48  1  0
 21 49  1  0
 21 50  1  0
 22 51  1  0
 22 52  1  0
 23 53  1  0
 23 54  1  0
 24 55  1  0
 24 56  1  0
 25 57  1  0
 25 58  1  0
M  CHG  1  15   1
M  END
>  <vina_affinity>  (1) 
-7.417

$$$$
dec_C14253253
     RDKit          3D

 56 60  0  0  0  0  0  0  0  0999 V2000
   -3.5220   27.8370   11.5860 C   0  0  0  0  0  0  0  0  0  0  0  0
   -2.0650   27.5230   11.2220 C   0  0  2  0  0  0  0  0  0  0  0  0
   -1.3730   28.5110   10.2890 C   0  0  0  0  0  0  0  0  0  0  0  0
   -2.0680   29.6340    9.8050 C   0  0  0  0  0  0  0  0  0  0  0  0
   -1.4510   30.5640    8.9630 C   0  0  0  0  0  0  0  0  0  0  0  0
   -0.1130   30.4090    8.5810 C   0  0  0  0  0  0  0  0  0  0  0  0
    0.5190   31.3370    7.7360 C   0  0  0  0  0  0  0  0  0  0  0  0
    1.8540   31.1670    7.3670 C   0  0  0  0  0  0  0  0  0  0  0  0
    2.5710   30.0720    7.8360 C   0  0  0  0  0  0  0  0  0  0  0  0
    1.9540   29.1420    8.6760 C   0  0  0  0  0  0  0  0  0  0  0  0
    0.6110   29.2970    9.0580 C   0  0  0  0  0  0  0  0  0  0  0  0
   -0.0270   28.3680    9.9050 C   0  0  0  0  0  0  0  0  0  0  0  0
   -1.9910   26.1810   10.6770 N   0  0  0  0  0  0  0  0  0  0  0  0
   -1.3010   25.3170   11.4920 C   0  0  0  0  0  0  0  0  0  0  0  0
   -1.0580   24.1560   11.2120 O   0  0  0  0  0  0  0  0  0  0  0  0
   -0.9420   25.9780   12.6230 N   0  0  0  0  0  0  0  0  0  0  0  0
   -0.1330   25.4030   13.6740 C   0  0  0  0  0  0  0  0  0  0  0  0
   -0.9770   25.2000   14.9470 C   0  0  0  0  0  0  0  0  0  0  0  0
   -1.2730   26.1770   15.6400 O   0  0  0  0  0  0  0  0  0  0  0  0
   -1.3770   23.8800   15.2170 N   0  0  0  0  0  0  0  0  0  0  0  0
   -0.3960   22.7990   15.4090 C   0  0  0  0  0  0  0  0  0  0  0  0
   -0.9550   21.4550   14.9680 C   0  0  1  0  0  0  0  0  0  0  0  0
    0.0940   20.3620   15.1750 C   0  0  0  0  0  0  0  0  0  0  0  0
   -0.3820   19.0810   15.1010 N   0  0  0  0  0  0  0  0  0  0  0  0
    1.2910   20.5760   15.3360 O   0  0  0  0  0  0  0  0  0  0  0  0
   -2.1160   21.1160   15.7230 O   0  0  0  0  0  0  0  0  0  0  0  0
   -3.0470   22.1270   15.7120 C   0  0  0  0  0  0  0  0  0  0  0  0
   -4.3490   21.7100   16.0120 C   0  0  0  0  0  0  0  0  0  0  0  0
   -5.3900   22.6290   16.0310 C   0  0  0  0  0  0  0  0  0  0  0  0
   -5.1240   23.9660   15.7600 C   0  0  0  0  0  0  0  0  0  0  0  0
   -3.8180   24.3880   15.4780 C   0  0  0  0  0  0  0  0  0  0  0  0
   -2.7470   23.4840   15.4500 C   0  0  0  0  0  0  0  0  0  0  0  0
   -1.2990   27.2980   12.5490 C   0  0  0  0  0  0  0  0  0  0  0  0
   -1.0770   28.1450   13.4060 O   0  0  0  0  0  0  0  0  0  0  0  0
   -3.6297   27.8602   12.6805 H   0  0  0  0  0  0  0  0  0  0  0  0
   -3.8013   28.8159   11.1693 H   0  0  0  0  0  0  0  0  0  0  0  0
   -4.1797   27.0600   11.1693 H   0  0  0  0  0  0  0  0  0  0  0  0
   -3.1185   29.7836   10.0949 H   0  0  0  0  0  0  0  0  0  0  0  0
   -2.0239   31.4283    8.5960 H   0  0  0  0  0  0  0  0  0  0  0  0
   -0.0436   32.2051    7.3621 H   0  0  0  0  0  0  0  0  0  0  0  0
    2.3391   31.8994    6.7050 H   0  0  0  0  0  0  0  0  0  0  0  0
    3.6235   29.9381    7.5457 H   0  0  0  0  0  0  0  0  0  0  0  0
    2.5268   28.2776    9.0429 H   0  0  0  0  0  0  0  0  0  0  0  0
    0.5449   27.5051   10.2770 H   0  0  0  0  0  0  0  0  0  0  0  0
   -2.2290   25.9250    9.7280 H   0  0  0  0  0  0  0  0  0  0  0  0
    0.2593   24.4312   13.3397 H   0  0  0  0  0  0  0  0  0  0  0  0
    0.6984   26.0867   13.9007 H   0  0  0  0  0  0  0  0  0  0  0  0
    0.5038   23.0235   14.8174 H   0  0  0  0  0  0  0  0  0  0  0  0
   -0.1547   22.7379   16.4805 H   0  0  0  0  0  0  0  0  0  0  0  0
   -1.2218   21.5319   13.9036 H   0  0  0  0  0  0  0  0  0  0  0  0
   -1.3640   18.9150   15.2930 H   0  0  0  0  0  0  0  0  0  0  0  0
    0.2690   18.3450   15.3420 H   0  0  0  0  0  0  0  0  0  0  0  0
   -4.5483   20.6511   16.2334 H   0  0  0  0  0  0  0  0  0  0  0  0
   -6.4153   22.3019   16.2584 H   0  0  0  0  0  0  0  0  0  0  0  0
   -5.9448   24.6983   15.7670 H   0  0  0  0  0  0  0  0  0  0  0  0
   -3.6289   25.4523   15.2741 H   0  0  0  0  0  0  0  0  0  0  0  0
  2  1  1  1
  2  3  1  0
  3  4  2  0
  4  5  1  0
  5  6  2  0
  6  7  1  0
  7  8  2  0
  8  9  1  0
  9 10  2  0
 10 11  1  0
 11 12  2  0
  2 13  1  0
 13 14  1  0
 14 15  2  0
 14 16  1  0
 16 17  1  0
 17 18  1  0
 18 19  2  0
 18 20  1  0
 20 21  1  0
 21 22  1  0
 22 23  1  0
 23 24  1  0
 23 25  2  0
 22 26  1  0
 26 27  1  0
 27 28  2  0
 28 29  1  0
 29 30  2  0
 30 31  1  0
 31 32  2  0
 16 33  1  0
 33 34  2  0
 33  2  1  0
 12  3  1  0
 32 20  1  0
 11  6  1  0
 32 27  1  0
  1 35  1  0
  1 36  1  0
  1 37  1  0
  4 38  1  0
  5 39  1  0
  7 40  1  0
  8 41  1  0
  9 42  1  0
 10 43  1  0
 12 44  1  0
 13 45  1  0
 17 46  1  0
 17 47  1  0
 21 48  1  0
 21 49  1  0
 22 50  1  6
 24 51  1  0
 24 52  1  0
 28 53  1  0
 29 54  1  0
 30 55  1  0
 31 56  1  0
M  END
>  <vina_affinity>  (1) 
-10.054

$$$$
dec_C23982316
     RDKit          3D

 60 63  0  0  0  0  0  0  0  0999 V2000
    1.1250   29.3190    9.3590 C   0  0  0  0  0  0  0  0  0  0  0  0
    0.1920   29.4330   10.4310 O   0  0  0  0  0  0  0  0  0  0  0  0
   -1.0900   29.8020   10.1140 C   0  0  0  0  0  0  0  0  0  0  0  0
   -1.4230   30.8690    9.2730 C   0  0  0  0  0  0  0  0  0  0  0  0
   -2.7590   31.1860    9.0250 C   0  0  0  0  0  0  0  0  0  0  0  0
   -3.7720   30.4460    9.6200 C   0  0  0  0  0  0  0  0  0  0  0  0
   -3.4520   29.3820   10.4620 C   0  0  0  0  0  0  0  0  0  0  0  0
   -2.1110   29.0280   10.7070 C   0  0  0  0  0  0  0  0  0  0  0  0
   -1.7360   27.8800   11.6410 C   0  0  1  0  0  0  0  0  0  0  0  0
   -3.0300   27.2030   12.2190 C   0  0  0  0  0  0  0  0  0  0  0  0
   -2.9420   26.6060   13.5510 N   0  0  0  0  0  0  0  0  0  0  0  0
   -3.9880   25.9970   14.2050 C   0  0  0  0  0  0  0  0  0  0  0  0
   -5.1090   25.9430   13.6990 O   0  0  0  0  0  0  0  0  0  0  0  0
   -3.6490   25.3430   15.5460 C   0  0  0  0  0  0  0  0  0  0  0  0
   -2.9510   24.0890   15.3410 N   0  0  0  0  0  0  0  0  0  0  0  0
   -3.4650   22.8680   15.7110 C   0  0  0  0  0  0  0  0  0  0  0  0
   -4.5800   22.6480   16.1520 O   0  0  0  0  0  0  0  0  0  0  0  0
   -2.3270   21.8890   15.6450 C   0  0  1  0  0  0  0  0  0  0  0  0
   -2.5910   20.4490   15.2630 C   0  0  0  0  0  0  0  0  0  0  0  0
   -1.2760   19.7740   14.9340 C   0  0  0  0  0  0  0  0  0  0  0  0
   -0.1250   20.4450   14.7190 C   0  0  0  0  0  0  0  0  0  0  0  0
   -0.0210   21.9560   14.7100 C   0  0  0  0  0  0  0  0  0  0  0  0
   -1.4120   22.5500   14.6210 C   0  0  2  0  0  0  0  0  0  0  0  0
   -1.6360   23.9900   14.9610 C   0  0  0  0  0  0  0  0  0  0  0  0
   -0.8260   24.9010   14.9400 O   0  0  0  0  0  0  0  0  0  0  0  0
   -0.7780   26.8380   11.0600 N   0  0  0  0  0  0  0  0  0  0  0  0
    0.3510   26.4090   11.9650 C   0  0  0  0  0  0  0  0  0  0  0  0
    0.6920   25.0190   11.4770 C   0  0  0  0  0  0  0  0  0  0  0  0
   -0.6710   24.4270   11.1950 C   0  0  0  0  0  0  0  0  0  0  0  0
   -1.4410   25.5680   10.5560 C   0  0  0  0  0  0  0  0  0  0  0  0
    2.1390   29.1951    9.7670 H   0  0  0  0  0  0  0  0  0  0  0  0
    0.8690   28.4455    8.7414 H   0  0  0  0  0  0  0  0  0  0  0  0
    1.0869   30.2285    8.7414 H   0  0  0  0  0  0  0  0  0  0  0  0
   -0.6251   31.4630    8.8033 H   0  0  0  0  0  0  0  0  0  0  0  0
   -3.0100   32.0233    8.3572 H   0  0  0  0  0  0  0  0  0  0  0  0
   -4.8251   30.6988    9.4274 H   0  0  0  0  0  0  0  0  0  0  0  0
   -4.2594   28.8100   10.9425 H   0  0  0  0  0  0  0  0  0  0  0  0
   -1.1592   28.3485   12.4521 H   0  0  0  0  0  0  0  0  0  0  0  0
   -3.8165   27.9713   12.2536 H   0  0  0  0  0  0  0  0  0  0  0  0
   -3.2284   26.3566   11.5450 H   0  0  0  0  0  0  0  0  0  0  0  0
   -2.0020   26.3830   13.8850 H   0  0  0  0  0  0  0  0  0  0  0  0
   -3.0084   26.0222   16.1276 H   0  0  0  0  0  0  0  0  0  0  0  0
   -4.5844   25.1431   16.0892 H   0  0  0  0  0  0  0  0  0  0  0  0
   -1.9433   21.7344   16.6643 H   0  0  0  0  0  0  0  0  0  0  0  0
   -3.0725   19.9274   16.1033 H   0  0  0  0  0  0  0  0  0  0  0  0
   -3.2547   20.4141   14.3865 H   0  0  0  0  0  0  0  0  0  0  0  0
   -1.2579   18.6762   14.8665 H   0  0  0  0  0  0  0  0  0  0  0  0
    0.7899   19.8612   14.5401 H   0  0  0  0  0  0  0  0  0  0  0  0
    0.4662   22.2969   15.6354 H   0  0  0  0  0  0  0  0  0  0  0  0
    0.5757   22.2805   13.8448 H   0  0  0  0  0  0  0  0  0  0  0  0
   -1.6002   22.3971   13.5481 H   0  0  0  0  0  0  0  0  0  0  0  0
   -0.3650   27.2810   10.2150 H   0  0  0  0  0  0  0  0  0  0  0  0
    1.2139   27.0835   11.8626 H   0  0  0  0  0  0  0  0  0  0  0  0
    0.0764   26.4319   13.0299 H   0  0  0  0  0  0  0  0  0  0  0  0
    1.3051   25.0574   10.5645 H   0  0  0  0  0  0  0  0  0  0  0  0
    1.2833   24.4344   12.1971 H   0  0  0  0  0  0  0  0  0  0  0  0
   -0.5918   23.5739   10.5051 H   0  0  0  0  0  0  0  0  0  0  0  0
   -1.1607   24.0404   12.1010 H   0  0  0  0  0  0  0  0  0  0  0  0
   -1.3755   25.5093    9.4595 H   0  0  0  0  0  0  0  0  0  0  0  0
   -2.5094   25.5349   10.8157 H   0  0  0  0  0  0  0  0  0  0  0  0
  1  2  1  0
  2  3  1  0
  3  4  2  0
  4  5  1  0
  5  6  2  0
  6  7  1  0
  7  8  2  0
  8  9  1  0
  9 10  1  0
 10 11  1  0
 11 12  1  0
 12 13  2  0
 12 14  1  0
 14 15  1  0
 15 16  1  0
 16 17  2  0
 16 18  1  0
 18 19  1  0
 19 20  1  0
 20 21  2  0
 21 22  1  0
 22 23  1  0
 23 24  1  0
 24 25  2  0
  9 26  1  0
 26 27  1  0
 27 28  1  0
 28 29  1  0
 29 30  1  0
  8  3  1  0
 24 15  1  0
 30 26  1  0
 23 18  1  0
  1 31  1  0
  1 32  1  0
  1 33  1  0
  4 34  1  0
  5 35  1  0
  6 36  1  0
  7 37  1  0
  9 38  1  1
 10 39  1  0
 10 40  1  0
 11 41  1  0
 14 42  1  0
 14 43  1  0
 18 44  1  1
 19 45  1  0
 19 46  1  0
 20 47  1  0
 21 48  1  0
 22 49  1  0
 22 50  1  0
 23 51  1  6
 26 52  1  0
 27 53  1  0
 27 54  1  0
 28 55  1  0
 28 56  1  0
 29 57  1  0
 29 58  1  0
 30 59  1  0
 30 60  1  0
M  CHG  1  26   1
M  END
>  <vina_affinity>  (1) 
-7.973

$$$$
dec_C20027252
     RDKit          3D

 55 57  0  0  0  0  0  0  0  0999 V2000
   -2.8860   26.8130   16.0860 C   0  0  0  0  0  0  0  0  0  0  0  0
   -1.8470   27.1180   15.1630 O   0  0  0  0  0  0  0  0  0  0  0  0
   -1.4540   26.1270   14.2990 C   0  0  0  0  0  0  0  0  0  0  0  0
   -0.8360   24.9340   14.7060 C   0  0  0  0  0  0  0  0  0  0  0  0
   -0.4820   23.9380   13.7800 C   0  0  0  0  0  0  0  0  0  0  0  0
    0.1970   22.6220   14.1770 C   0  0  1  0  0  0  0  0  0  0  0  0
   -0.6550   21.7250   15.1380 C   0  0  1  0  0  0  0  0  0  0  0  0
   -2.1940   21.8320   14.9620 C   0  0  0  0  0  0  0  0  0  0  0  0
   -2.9530   20.9140   15.8260 N   0  0  0  0  0  0  0  0  0  0  0  0
   -2.8520   21.2510   17.2450 C   0  0  0  0  0  0  0  0  0  0  0  0
   -2.5860   19.5200   15.5700 C   0  0  0  0  0  0  0  0  0  0  0  0
   -1.1220   19.2850   15.3210 C   0  0  0  0  0  0  0  0  0  0  0  0
   -0.2180   20.2660   15.1200 C   0  0  0  0  0  0  0  0  0  0  0  0
    1.1700   19.9800   14.7690 C   0  0  0  0  0  0  0  0  0  0  0  0
    1.8580   18.9480   15.4870 C   0  0  0  0  0  0  0  0  0  0  0  0
    2.4280   18.1060   16.0460 N   0  0  0  0  0  0  0  0  0  0  0  0
    1.7740   20.6700   13.7660 C   0  0  0  0  0  0  0  0  0  0  0  0
    3.0920   20.4370   13.3640 N   0  0  0  0  0  0  0  0  0  0  0  0
    0.9470   21.8090   13.0630 C   0  0  0  0  0  0  0  0  0  0  0  0
    1.8550   22.7310   12.3360 C   0  0  0  0  0  0  0  0  0  0  0  0
    2.5680   23.4400   11.7540 N   0  0  0  0  0  0  0  0  0  0  0  0
    0.0180   21.1650   12.1080 C   0  0  0  0  0  0  0  0  0  0  0  0
   -0.7320   20.6690   11.3750 N   0  0  0  0  0  0  0  0  0  0  0  0
   -0.7520   24.1760   12.4210 C   0  0  0  0  0  0  0  0  0  0  0  0
   -1.3520   25.3680   12.0020 C   0  0  0  0  0  0  0  0  0  0  0  0
   -1.6610   25.5680   10.3140 Cl  0  0  0  0  0  0  0  0  0  0  0  0
   -1.6770   26.3580   12.9320 C   0  0  0  0  0  0  0  0  0  0  0  0
   -2.2980   27.5010   12.4860 O   0  0  0  0  0  0  0  0  0  0  0  0
   -1.4320   28.3630   11.7290 C   0  0  0  0  0  0  0  0  0  0  0  0
   -0.7700   29.3240   12.7110 C   0  0  0  0  0  0  0  0  0  0  0  0
   -2.2740   29.1370   10.7180 C   0  0  0  0  0  0  0  0  0  0  0  0
   -2.5082   26.9239   17.1131 H   0  0  0  0  0  0  0  0  0  0  0  0
   -3.7295   27.5014   15.9292 H   0  0  0  0  0  0  0  0  0  0  0  0
   -3.2235   25.7779   15.9292 H   0  0  0  0  0  0  0  0  0  0  0  0
   -0.6241   24.7753   15.7737 H   0  0  0  0  0  0  0  0  0  0  0  0
    1.0420   23.0073   14.7665 H   0  0  0  0  0  0  0  0  0  0  0  0
   -0.4397   22.1497   16.1296 H   0  0  0  0  0  0  0  0  0  0  0  0
   -2.4997   22.8623   15.1966 H   0  0  0  0  0  0  0  0  0  0  0  0
   -2.4189   21.5543   13.9216 H   0  0  0  0  0  0  0  0  0  0  0  0
   -3.1157   20.3713   17.8505 H   0  0  0  0  0  0  0  0  0  0  0  0
   -1.8218   21.5598   17.4761 H   0  0  0  0  0  0  0  0  0  0  0  0
   -3.5425   22.0755   17.4761 H   0  0  0  0  0  0  0  0  0  0  0  0
   -2.8839   18.9224   16.4442 H   0  0  0  0  0  0  0  0  0  0  0  0
   -3.1061   19.2295   14.6453 H   0  0  0  0  0  0  0  0  0  0  0  0
   -0.7645   18.2449   15.3014 H   0  0  0  0  0  0  0  0  0  0  0  0
    3.4170   19.4670   13.3810 H   0  0  0  0  0  0  0  0  0  0  0  0
    3.4330   20.9320   12.5370 H   0  0  0  0  0  0  0  0  0  0  0  0
   -0.4871   23.4123   11.6750 H   0  0  0  0  0  0  0  0  0  0  0  0
   -0.6647   27.7903   11.1874 H   0  0  0  0  0  0  0  0  0  0  0  0
   -0.9897   29.0051   13.7406 H   0  0  0  0  0  0  0  0  0  0  0  0
    0.3182   29.3205   12.5503 H   0  0  0  0  0  0  0  0  0  0  0  0
   -1.1611   30.3395   12.5503 H   0  0  0  0  0  0  0  0  0  0  0  0
   -2.9819   29.7878   11.2522 H   0  0  0  0  0  0  0  0  0  0  0  0
   -1.6156   29.7517   10.0866 H   0  0  0  0  0  0  0  0  0  0  0  0
   -2.8312   28.4293   10.0866 H   0  0  0  0  0  0  0  0  0  0  0  0
  1  2  1  0
  2  3  1  0
  3  4  2  0
  4  5  1  0
  5  6  1  0
  6  7  1  0
  7  8  1  0
  8  9  1  0
  9 10  1  0
  9 11  1  0
 11 12  1  0
 12 13  2  0
 13 14  1  0
 14 15  1  0
 15 16  3  0
 14 17  2  0
 17 18  1  0
 17 19  1  0
 19 20  1  0
 20 21  3  0
 19 22  1  0
 22 23  3  0
  5 24  2  0
 24 25  1  0
 25 26  1  0
 25 27  2  0
 27 28  1  0
 28 29  1  0
 29 30  1  0
 29 31  1  0
 27  3  1  0
 19  6  1  0
 13  7  1  0
  1 32  1  0
  1 33  1  0
  1 34  1  0
  4 35  1  0
  6 36  1  1
  7 37  1  1
  8 38  1  0
  8 39  1  0
 10 40  1  0
 10 41  1  0
 10 42  1  0
 11 43  1  0
 11 44  1  0
 12 45  1  0
 18 46  1  0
 18 47  1  0
 24 48  1  0
 29 49  1  0
 30 50  1  0
 30 51  1  0
 30 52  1  0
 31 53  1  0
 31 54  1  0
 31 55  1  0
M  END
>  <vina_affinity>  (1) 
-7.293

$$$$
dec_C08644812
     RDKit          3D

 45 48  0  0  0  0  0  0  0  0999 V2000
   -0.0200   27.5840   12.1340 C   0  0  0  0  0  0  0  0  0  0  0  0
    0.7680   27.7110   10.8340 C   0  0  1  0  0  0  0  0  0  0  0  0
    1.6210   26.1380   10.4310 S   0  0  0  0  0  0  0  0  0  0  0  0
    2.9560   26.7120    9.4940 C   0  0  0  0  0  0  0  0  0  0  0  0
    3.3400   27.9570    9.3360 N   0  0  0  0  0  0  0  0  0  0  0  0
    4.4330   27.9500    8.4990 N   0  0  0  0  0  0  0  0  0  0  0  0
    4.7120   26.6950    8.1830 C   0  0  0  0  0  0  0  0  0  0  0  0
    5.7910   26.2560    7.3010 C   0  0  0  0  0  0  0  0  0  0  0  0
    7.0440   25.9840    7.8750 C   0  0  0  0  0  0  0  0  0  0  0  0
    8.1170   25.5640    7.0860 C   0  0  0  0  0  0  0  0  0  0  0  0
    7.9410   25.4010    5.7150 C   0  0  0  0  0  0  0  0  0  0  0  0
    9.2620   24.8830    4.7420 Cl  0  0  0  0  0  0  0  0  0  0  0  0
    6.7040   25.6450    5.1270 C   0  0  0  0  0  0  0  0  0  0  0  0
    5.6290   26.0670    5.9180 C   0  0  0  0  0  0  0  0  0  0  0  0
    4.1050   26.2880    5.1250 Cl  0  0  0  0  0  0  0  0  0  0  0  0
    3.7700   25.8760    8.7720 N   0  0  0  0  0  0  0  0  0  0  0  0
    3.6450   24.4470    8.6230 N   0  0  0  0  0  0  0  0  0  0  0  0
   -0.2010   28.0860    9.6990 C   0  0  0  0  0  0  0  0  0  0  0  0
   -1.0970   27.3090    9.3580 O   0  0  0  0  0  0  0  0  0  0  0  0
   -0.0330   29.3510    9.1480 N   0  0  0  0  0  0  0  0  0  0  0  0
    0.7800   29.6930    7.9640 C   0  0  0  0  0  0  0  0  0  0  0  0
    0.7450   31.2150    7.7930 C   0  0  0  0  0  0  0  0  0  0  0  0
   -0.2750   31.6160    8.8060 C   0  0  0  0  0  0  0  0  0  0  0  0
   -0.7720   32.8920    9.0320 C   0  0  0  0  0  0  0  0  0  0  0  0
   -1.7030   33.0680   10.0560 C   0  0  0  0  0  0  0  0  0  0  0  0
   -2.1130   31.9790   10.8360 C   0  0  0  0  0  0  0  0  0  0  0  0
   -1.6010   30.6980   10.6020 C   0  0  0  0  0  0  0  0  0  0  0  0
   -0.6810   30.5280    9.5810 C   0  0  0  0  0  0  0  0  0  0  0  0
    0.6631   27.6941   12.9891 H   0  0  0  0  0  0  0  0  0  0  0  0
   -0.7886   28.3699   12.1752 H   0  0  0  0  0  0  0  0  0  0  0  0
   -0.5028   26.5965   12.1752 H   0  0  0  0  0  0  0  0  0  0  0  0
    1.5324   28.4932   10.9519 H   0  0  0  0  0  0  0  0  0  0  0  0
    7.1817   26.1034    8.9598 H   0  0  0  0  0  0  0  0  0  0  0  0
    9.0960   25.3631    7.5456 H   0  0  0  0  0  0  0  0  0  0  0  0
    6.5711   25.5067    4.0438 H   0  0  0  0  0  0  0  0  0  0  0  0
    2.6630   24.1770    8.6820 H   0  0  0  0  0  0  0  0  0  0  0  0
    3.9410   24.1660    7.6860 H   0  0  0  0  0  0  0  0  0  0  0  0
    1.8169   29.3573    8.1129 H   0  0  0  0  0  0  0  0  0  0  0  0
    0.3792   29.1972    7.0676 H   0  0  0  0  0  0  0  0  0  0  0  0
    1.7247   31.6647    8.0121 H   0  0  0  0  0  0  0  0  0  0  0  0
    0.5072   31.5417    6.7699 H   0  0  0  0  0  0  0  0  0  0  0  0
   -0.4402   33.7431    8.4192 H   0  0  0  0  0  0  0  0  0  0  0  0
   -2.1176   34.0678   10.2521 H   0  0  0  0  0  0  0  0  0  0  0  0
   -2.8459   32.1327   11.6417 H   0  0  0  0  0  0  0  0  0  0  0  0
   -1.9225   29.8439   11.2161 H   0  0  0  0  0  0  0  0  0  0  0  0
  1  2  1  0
  2  3  1  0
  3  4  1  0
  4  5  2  0
  5  6  1  0
  6  7  2  0
  7  8  1  0
  8  9  2  0
  9 10  1  0
 10 11  2  0
 11 12  1  0
 11 13  1  0
 13 14  2  0
 14 15  1  0
  7 16  1  0
 16 17  1  0
  2 18  1  0
 18 19  2  0
 18 20  1  0
 20 21  1  0
 21 22  1  0
 22 23  1  0
 23 24  2  0
 24 25  1  0
 25 26  2  0
 26 27  1  0
 27 28  2  0
 16  4  1  0
 28 20  1  0
 14  8  1  0
 28 23  1  0
  1 29  1  0
  1 30  1  0
  1 31  1  0
  2 32  1  1
  9 33  1  0
 10 34  1  0
 13 35  1  0
 17 36  1  0
 17 37  1  0
 21 38  1  0
 21 39  1  0
 22 40  1  0
 22 41  1  0
 24 42  1  0
 25 43  1  0
 26 44  1  0
 27 45  1  0
M  END
>  <vina_affinity>  (1) 
-8.542

$$$$
dec_C63182702
     RDKit          3D

 57 60  0  0  0  0  0  0  0  0999 V2000
   -4.8110   19.8590   16.8360 C   0  0  0  0  0  0  0  0  0  0  0  0
   -4.8430   21.2100   17.2760 O   0  0  0  0  0  0  0  0  0  0  0  0
   -4.1710   22.1250   16.5150 C   0  0  0  0  0  0  0  0  0  0  0  0
   -2.8940   21.7270   16.1150 C   0  0  0  0  0  0  0  0  0  0  0  0
   -2.0970   22.5670   15.3310 C   0  0  0  0  0  0  0  0  0  0  0  0
   -2.5610   23.8270   14.9360 C   0  0  0  0  0  0  0  0  0  0  0  0
   -1.7140   24.6930   14.1060 C   0  0  0  0  0  0  0  0  0  0  0  0
   -1.5550   26.0650   14.1770 C   0  0  0  0  0  0  0  0  0  0  0  0
   -0.6640   26.5630   13.1890 C   0  0  0  0  0  0  0  0  0  0  0  0
   -0.3580   27.8730   13.0860 N   0  0  0  0  0  0  0  0  0  0  0  0
   -0.1610   25.5720   12.3690 C   0  0  0  0  0  0  0  0  0  0  0  0
    0.7620   25.7150   11.2520 C   0  0  0  0  0  0  0  0  0  0  0  0
    0.4560   25.5190   10.0690 O   0  0  0  0  0  0  0  0  0  0  0  0
    2.0570   26.1130   11.5640 N   0  0  0  0  0  0  0  0  0  0  0  0
    2.8630   26.5640   10.4970 N   0  0  0  0  0  0  0  0  0  0  0  0
    2.5890   27.8320   10.0180 C   0  0  0  0  0  0  0  0  0  0  0  0
    1.9160   28.6530   10.6340 O   0  0  0  0  0  0  0  0  0  0  0  0
    3.1690   28.0800    8.6390 C   0  0  0  0  0  0  0  0  0  0  0  0
    3.0440   29.5470    8.2270 C   0  0  0  0  0  0  0  0  0  0  0  0
    1.8540   29.8250    7.3030 C   0  0  0  0  0  0  0  0  0  0  0  0
    0.9330   30.8990    7.7990 C   0  0  0  0  0  0  0  0  0  0  0  0
   -0.1590   30.7490    8.5630 C   0  0  0  0  0  0  0  0  0  0  0  0
   -0.8430   29.6340    9.1370 C   0  0  0  0  0  0  0  0  0  0  0  0
   -1.9460   29.8690    9.8680 C   0  0  0  0  0  0  0  0  0  0  0  0
   -2.4560   31.2150   10.0870 C   0  0  0  0  0  0  0  0  0  0  0  0
   -1.8700   32.3170    9.5860 C   0  0  0  0  0  0  0  0  0  0  0  0
   -0.6560   32.1220    8.7790 C   0  0  0  0  0  0  0  0  0  0  0  0
    0.0730   33.0020    8.2110 N   0  0  0  0  0  0  0  0  0  0  0  0
    1.1940   32.3530    7.5100 C   0  0  0  0  0  0  0  0  0  0  0  0
   -0.7820   24.0380   12.8260 S   0  0  0  0  0  0  0  0  0  0  0  0
   -3.8460   24.2190   15.3380 C   0  0  0  0  0  0  0  0  0  0  0  0
   -4.6450   23.3760   16.1230 C   0  0  0  0  0  0  0  0  0  0  0  0
   -4.7951   19.1895   17.7086 H   0  0  0  0  0  0  0  0  0  0  0  0
   -5.7044   19.6497   16.2294 H   0  0  0  0  0  0  0  0  0  0  0  0
   -3.9087   19.6922   16.2294 H   0  0  0  0  0  0  0  0  0  0  0  0
   -2.5107   20.7420   16.4198 H   0  0  0  0  0  0  0  0  0  0  0  0
   -1.0953   22.2341   15.0216 H   0  0  0  0  0  0  0  0  0  0  0  0
   -2.0627   26.7008   14.9172 H   0  0  0  0  0  0  0  0  0  0  0  0
   -1.0770   28.5770   12.9430 H   0  0  0  0  0  0  0  0  0  0  0  0
    0.5560   28.1570   12.7300 H   0  0  0  0  0  0  0  0  0  0  0  0
    2.2350   26.5400   12.4740 H   0  0  0  0  0  0  0  0  0  0  0  0
    3.1200   25.8240    9.8440 H   0  0  0  0  0  0  0  0  0  0  0  0
    4.2330   27.8010    8.6446 H   0  0  0  0  0  0  0  0  0  0  0  0
    2.6052   27.4721    7.9161 H   0  0  0  0  0  0  0  0  0  0  0  0
    2.9277   30.1550    9.1363 H   0  0  0  0  0  0  0  0  0  0  0  0
    3.9549   29.8034    7.6661 H   0  0  0  0  0  0  0  0  0  0  0  0
    2.2432   30.1301    6.3204 H   0  0  0  0  0  0  0  0  0  0  0  0
    1.2645   28.8975    7.2565 H   0  0  0  0  0  0  0  0  0  0  0  0
   -0.4760   28.6083    8.9845 H   0  0  0  0  0  0  0  0  0  0  0  0
   -2.4803   29.0176   10.3149 H   0  0  0  0  0  0  0  0  0  0  0  0
   -3.3662   31.3367   10.6926 H   0  0  0  0  0  0  0  0  0  0  0  0
   -2.2808   33.3204    9.7717 H   0  0  0  0  0  0  0  0  0  0  0  0
   -0.1300   33.9990    8.2630 H   0  0  0  0  0  0  0  0  0  0  0  0
    1.1646   32.5588    6.4298 H   0  0  0  0  0  0  0  0  0  0  0  0
    2.1856   32.7019    7.8340 H   0  0  0  0  0  0  0  0  0  0  0  0
   -4.2328   25.2025   15.0329 H   0  0  0  0  0  0  0  0  0  0  0  0
   -5.6493   23.7027   16.4307 H   0  0  0  0  0  0  0  0  0  0  0  0
  1  2  1  0
  2  3  1  0
  3  4  2  0
  4  5  1  0
  5  6  2  0
  6  7  1  0
  7  8  2  0
  8  9  1  0
  9 10  1  0
  9 11  2  0
 11 12  1  0
 12 13  2  0
 12 14  1  0
 14 15  1  0
 15 16  1  0
 16 17  2  0
 16 18  1  0
 18 19  1  0
 19 20  1  0
 20 21  1  0
 21 22  2  0
 22 23  1  0
 23 24  2  0
 24 25  1  0
 25 26  2  0
 26 27  1  0
 27 28  2  0
 28 29  1  0
 11 30  1  0
  6 31  1  0
 31 32  2  0
 32  3  1  0
 30  7  1  0
 29 21  1  0
 27 22  1  0
  1 33  1  0
  1 34  1  0
  1 35  1  0
  4 36  1  0
  5 37  1  0
  8 38  1  0
 10 39  1  0
 10 40  1  0
 14 41  1  0
 15 42  1  0
 18 43  1  0
 18 44  1  0
 19 45  1  0
 19 46  1  0
 20 47  1  0
 20 48  1  0
 23 49  1  0
 24 50  1  0
 25 51  1  0
 26 52  1  0
 28 53  1  0
 29 54  1  0
 29 55  1  0
 31 56  1  0
 32 57  1  0
M  CHG  1  28   1
M  END
>  <vina_affinity>  (1) 
-9.109

$$$$
dec_C66255621
     RDKit          3D

 42 44  0  0  0  0  0  0  0  0999 V2000
   -4.9800   21.5540   17.2800 N   0  0  0  0  0  0  0  0  0  0  0  0
   -4.5160   22.3790   16.6090 C   0  0  0  0  0  0  0  0  0  0  0  0
   -3.9460   23.3940   15.7830 C   0  0  0  0  0  0  0  0  0  0  0  0
   -4.6720   24.5110   15.3910 C   0  0  0  0  0  0  0  0  0  0  0  0
   -4.0630   25.4740   14.5810 C   0  0  0  0  0  0  0  0  0  0  0  0
   -2.7330   25.3190   14.1830 C   0  0  0  0  0  0  0  0  0  0  0  0
   -2.1220   26.2720   13.3450 N   0  0  0  0  0  0  0  0  0  0  0  0
   -1.0200   27.0210   13.9450 C   0  0  0  0  0  0  0  0  0  0  0  0
   -0.8530   28.3320   13.1640 C   0  0  0  0  0  0  0  0  0  0  0  0
   -1.3490   28.1910   11.7200 C   0  0  0  0  0  0  0  0  0  0  0  0
   -0.7250   29.2320   10.8530 N   0  0  0  0  0  0  0  0  0  0  0  0
   -0.7050   29.2690    9.5650 C   0  0  0  0  0  0  0  0  0  0  0  0
   -0.0590   30.3290    8.7710 C   0  0  0  0  0  0  0  0  0  0  0  0
    0.9700   30.0670    7.8580 C   0  0  0  0  0  0  0  0  0  0  0  0
    1.5430   31.1220    7.1430 C   0  0  0  0  0  0  0  0  0  0  0  0
    1.0980   32.4300    7.3370 C   0  0  0  0  0  0  0  0  0  0  0  0
    0.0790   32.6960    8.2520 C   0  0  0  0  0  0  0  0  0  0  0  0
   -0.4930   31.6470    8.9660 C   0  0  0  0  0  0  0  0  0  0  0  0
   -1.5010   31.8940    9.8560 O   0  0  0  0  0  0  0  0  0  0  0  0
   -1.1040   26.7950   11.1570 C   0  0  0  0  0  0  0  0  0  0  0  0
   -1.8530   25.7500   11.9930 C   0  0  0  0  0  0  0  0  0  0  0  0
   -2.0380   24.2200   14.5480 N   0  0  0  0  0  0  0  0  0  0  0  0
   -2.6420   23.2930   15.3360 C   0  0  0  0  0  0  0  0  0  0  0  0
   -5.7158   24.6368   15.7146 H   0  0  0  0  0  0  0  0  0  0  0  0
   -4.6331   26.3568   14.2560 H   0  0  0  0  0  0  0  0  0  0  0  0
   -1.2487   27.2410   14.9982 H   0  0  0  0  0  0  0  0  0  0  0  0
   -0.0919   26.4320   13.9035 H   0  0  0  0  0  0  0  0  0  0  0  0
   -1.4305   29.1229   13.6650 H   0  0  0  0  0  0  0  0  0  0  0  0
    0.2170   28.5857   13.1389 H   0  0  0  0  0  0  0  0  0  0  0  0
   -2.4385   28.3425   11.7305 H   0  0  0  0  0  0  0  0  0  0  0  0
   -0.2380   29.9710   11.3690 H   0  0  0  0  0  0  0  0  0  0  0  0
   -1.2043   28.4536    9.0211 H   0  0  0  0  0  0  0  0  0  0  0  0
    1.3250   29.0372    7.7047 H   0  0  0  0  0  0  0  0  0  0  0  0
    2.3497   30.9200    6.4229 H   0  0  0  0  0  0  0  0  0  0  0  0
    1.5519   33.2539    6.7668 H   0  0  0  0  0  0  0  0  0  0  0  0
   -0.2699   33.7274    8.4081 H   0  0  0  0  0  0  0  0  0  0  0  0
   -1.3290   31.3980   10.6800 H   0  0  0  0  0  0  0  0  0  0  0  0
   -1.4620   26.7540   10.1177 H   0  0  0  0  0  0  0  0  0  0  0  0
   -0.0262   26.5775   11.1907 H   0  0  0  0  0  0  0  0  0  0  0  0
   -2.8068   25.5080   11.5013 H   0  0  0  0  0  0  0  0  0  0  0  0
   -1.2312   24.8464   12.0760 H   0  0  0  0  0  0  0  0  0  0  0  0
   -2.0590   22.4098   15.6361 H   0  0  0  0  0  0  0  0  0  0  0  0
  1  2  3  0
  2  3  1  0
  3  4  2  0
  4  5  1  0
  5  6  2  0
  6  7  1  0
  7  8  1  0
  8  9  1  0
  9 10  1  0
 10 11  1  0
 11 12  2  0
 12 13  1  0
 13 14  2  0
 14 15  1  0
 15 16  2  0
 16 17  1  0
 17 18  2  0
 18 19  1  0
 10 20  1  0
 20 21  1  0
  6 22  1  0
 22 23  2  0
 23  3  1  0
 21  7  1  0
 18 13  1  0
  4 24  1  0
  5 25  1  0
  8 26  1  0
  8 27  1  0
  9 28  1  0
  9 29  1  0
 10 30  1  0
 11 31  1  0
 12 32  1  0
 14 33  1  0
 15 34  1  0
 16 35  1  0
 17 36  1  0
 19 37  1  0
 20 38  1  0
 20 39  1  0
 21 40  1  0
 21 41  1  0
 23 42  1  0
M  CHG  1  11   1
M  END
>  <vina_affinity>  (1) 
-7.868

$$$$
dec_C16400198
     RDKit          3D

 36 37  0  0  0  0  0  0  0  0999 V2000
    4.8540   29.1570    8.1130 O   0  0  0  0  0  0  0  0  0  0  0  0
    4.7770   27.9430    8.2390 C   0  0  0  0  0  0  0  0  0  0  0  0
    5.8180   27.0890    7.6110 C   0  0  0  0  0  0  0  0  0  0  0  0
    6.0550   25.8210    7.9840 C   0  0  0  0  0  0  0  0  0  0  0  0
    7.1080   24.9820    7.3950 C   0  0  0  0  0  0  0  0  0  0  0  0
    6.9030   23.6310    7.0800 C   0  0  0  0  0  0  0  0  0  0  0  0
    7.9220   22.8740    6.4920 C   0  0  0  0  0  0  0  0  0  0  0  0
    9.1480   23.4670    6.2060 C   0  0  0  0  0  0  0  0  0  0  0  0
   10.4010   22.5380    5.4800 Cl  0  0  0  0  0  0  0  0  0  0  0  0
    9.3640   24.8120    6.4990 C   0  0  0  0  0  0  0  0  0  0  0  0
    8.3450   25.5670    7.0860 C   0  0  0  0  0  0  0  0  0  0  0  0
    3.8340   27.2390    8.9640 N   0  0  0  0  0  0  0  0  0  0  0  0
    2.6040   27.6500    9.4450 C   0  0  0  0  0  0  0  0  0  0  0  0
    1.8260   26.5630   10.4610 S   0  0  0  0  0  0  0  0  0  0  0  0
    2.1600   28.8600    8.9830 N   0  0  0  0  0  0  0  0  0  0  0  0
    1.0030   29.6020    9.3190 C   0  0  0  0  0  0  0  0  0  0  0  0
    0.2410   29.2870   10.4520 C   0  0  0  0  0  0  0  0  0  0  0  0
   -0.8730   30.0540   10.8020 C   0  0  0  0  0  0  0  0  0  0  0  0
   -1.2260   31.1510   10.0270 C   0  0  0  0  0  0  0  0  0  0  0  0
   -2.5990   32.0950   10.4610 Cl  0  0  0  0  0  0  0  0  0  0  0  0
   -0.4690   31.4920    8.9100 C   0  0  0  0  0  0  0  0  0  0  0  0
    0.6610   30.7320    8.5370 C   0  0  0  0  0  0  0  0  0  0  0  0
    1.4320   31.1340    7.2900 C   0  0  0  0  0  0  0  0  0  0  0  0
    1.8570   30.1990    6.5420 O   0  0  0  0  0  0  0  0  0  0  0  0
    1.6030   32.3810    7.0860 O   0  0  0  0  0  0  0  0  0  0  0  0
    6.4251   27.5170    6.7997 H   0  0  0  0  0  0  0  0  0  0  0  0
    5.4259   25.3860    8.7745 H   0  0  0  0  0  0  0  0  0  0  0  0
    5.9320   23.1621    7.2973 H   0  0  0  0  0  0  0  0  0  0  0  0
    7.7545   21.8127    6.2563 H   0  0  0  0  0  0  0  0  0  0  0  0
   10.3335   25.2780    6.2690 H   0  0  0  0  0  0  0  0  0  0  0  0
    8.5146   26.6309    7.3080 H   0  0  0  0  0  0  0  0  0  0  0  0
    3.9870   26.2540    9.1080 H   0  0  0  0  0  0  0  0  0  0  0  0
    2.4760   29.0720    8.0200 H   0  0  0  0  0  0  0  0  0  0  0  0
    0.5236   28.4247   11.0738 H   0  0  0  0  0  0  0  0  0  0  0  0
   -1.4685   29.7899   11.6884 H   0  0  0  0  0  0  0  0  0  0  0  0
   -0.7555   32.3672    8.3084 H   0  0  0  0  0  0  0  0  0  0  0  0
  1  2  2  0
  2  3  1  0
  3  4  2  0
  4  5  1  0
  5  6  2  0
  6  7  1  0
  7  8  2  0
  8  9  1  0
  8 10  1  0
 10 11  2  0
  2 12  1  0
 12 13  1  0
 13 14  2  0
 13 15  1  0
 15 16  1  0
 16 17  2  0
 17 18  1  0
 18 19  2  0
 19 20  1  0
 19 21  1  0
 21 22  2  0
 22 23  1  0
 23 24  2  0
 23 25  1  0
 11  5  1  0
 22 16  1  0
  3 26  1  0
  4 27  1  0
  6 28  1  0
  7 29  1  0
 10 30  1  0
 11 31  1  0
 12 32  1  0
 15 33  1  0
 17 34  1  0
 18 35  1  0
 21 36  1  0
M  CHG  1  25  -1
M  END
>  <vina_affinity>  (1) 
-8.625

$$$$
dec_C49166236
     RDKit          3D

 57 58  0  0  0  0  0  0  0  0999 V2000
    3.7760   27.0680    3.1560 C   0  0  0  0  0  0  0  0  0  0  0  0
    4.9360   27.4430    4.0780 C   0  0  0  0  0  0  0  0  0  0  0  0
    5.8940   26.2650    4.2300 C   0  0  0  0  0  0  0  0  0  0  0  0
    4.4230   27.9000    5.4410 C   0  0  0  0  0  0  0  0  0  0  0  0
    3.4050   28.5680    5.5970 O   0  0  0  0  0  0  0  0  0  0  0  0
    5.2150   27.5060    6.4990 N   0  0  0  0  0  0  0  0  0  0  0  0
    4.8570   27.8190    7.8700 C   0  0  0  0  0  0  0  0  0  0  0  0
    4.1530   26.6590    8.5840 C   0  0  0  0  0  0  0  0  0  0  0  0
    3.1870   27.1070    9.5740 N   0  0  0  0  0  0  0  0  0  0  0  0
    2.2560   26.2570   10.0930 C   0  0  0  0  0  0  0  0  0  0  0  0
    2.1040   25.0900    9.7610 O   0  0  0  0  0  0  0  0  0  0  0  0
    1.4890   26.8720   11.0550 N   0  0  0  0  0  0  0  0  0  0  0  0
    0.3340   26.1680   11.5900 C   0  0  0  0  0  0  0  0  0  0  0  0
   -0.7030   27.1340   12.1930 C   0  0  1  0  0  0  0  0  0  0  0  0
   -0.0200   28.1910   12.8800 O   0  0  0  0  0  0  0  0  0  0  0  0
   -1.6120   27.7050   11.0870 C   0  0  0  0  0  0  0  0  0  0  0  0
   -1.1200   29.0190   10.5050 N   0  0  2  0  0  0  0  0  0  0  0  0
   -1.9830   30.2220   10.8730 C   0  0  0  0  0  0  0  0  0  0  0  0
   -2.1300   31.2570    9.7500 C   0  0  0  0  0  0  0  0  0  0  0  0
   -0.8540   31.4290    8.9710 C   0  0  0  0  0  0  0  0  0  0  0  0
   -0.3890   32.6800    8.5630 C   0  0  0  0  0  0  0  0  0  0  0  0
    0.7810   32.7700    7.8110 C   0  0  0  0  0  0  0  0  0  0  0  0
    1.4790   31.6160    7.4510 C   0  0  0  0  0  0  0  0  0  0  0  0
    1.0120   30.3610    7.8430 C   0  0  0  0  0  0  0  0  0  0  0  0
   -0.1540   30.2640    8.6070 C   0  0  0  0  0  0  0  0  0  0  0  0
   -0.7300   28.9510    9.0450 C   0  0  0  0  0  0  0  0  0  0  0  0
    2.9025   26.7856    3.7620 H   0  0  0  0  0  0  0  0  0  0  0  0
    3.5191   27.9289    2.5212 H   0  0  0  0  0  0  0  0  0  0  0  0
    4.0716   26.2197    2.5212 H   0  0  0  0  0  0  0  0  0  0  0  0
    5.4822   28.2823    3.6228 H   0  0  0  0  0  0  0  0  0  0  0  0
    6.0590   26.0621    5.2985 H   0  0  0  0  0  0  0  0  0  0  0  0
    5.4600   25.3752    3.7506 H   0  0  0  0  0  0  0  0  0  0  0  0
    6.8536   26.5085    3.7506 H   0  0  0  0  0  0  0  0  0  0  0  0
    6.0630   26.9840    6.3230 H   0  0  0  0  0  0  0  0  0  0  0  0
    5.7743   28.0670    8.4241 H   0  0  0  0  0  0  0  0  0  0  0  0
    4.1536   28.6643    7.8421 H   0  0  0  0  0  0  0  0  0  0  0  0
    3.6288   26.0505    7.8324 H   0  0  0  0  0  0  0  0  0  0  0  0
    4.9243   26.0804    9.1135 H   0  0  0  0  0  0  0  0  0  0  0  0
    3.4670   27.8900   10.1490 H   0  0  0  0  0  0  0  0  0  0  0  0
    1.3680   27.8630   10.8790 H   0  0  0  0  0  0  0  0  0  0  0  0
   -0.1417   25.5980   10.7783 H   0  0  0  0  0  0  0  0  0  0  0  0
    0.6841   25.5018   12.3923 H   0  0  0  0  0  0  0  0  0  0  0  0
   -1.3378   26.5892   12.9073 H   0  0  0  0  0  0  0  0  0  0  0  0
    0.9340   27.9810   12.8130 H   0  0  0  0  0  0  0  0  0  0  0  0
   -1.6735   26.9671   10.2736 H   0  0  0  0  0  0  0  0  0  0  0  0
   -2.5899   27.9060   11.5488 H   0  0  0  0  0  0  0  0  0  0  0  0
   -0.2240   29.2090   10.9700 H   0  0  0  0  0  0  0  0  0  0  0  0
   -2.9861   29.8582   11.1404 H   0  0  0  0  0  0  0  0  0  0  0  0
   -1.4778   30.7303   11.7075 H   0  0  0  0  0  0  0  0  0  0  0  0
   -2.9232   30.9259    9.0636 H   0  0  0  0  0  0  0  0  0  0  0  0
   -2.3800   32.2243   10.2102 H   0  0  0  0  0  0  0  0  0  0  0  0
   -0.9433   33.5908    8.8337 H   0  0  0  0  0  0  0  0  0  0  0  0
    1.1565   33.7559    7.4994 H   0  0  0  0  0  0  0  0  0  0  0  0
    2.4007   31.6963    6.8560 H   0  0  0  0  0  0  0  0  0  0  0  0
    1.5591   29.4522    7.5520 H   0  0  0  0  0  0  0  0  0  0  0  0
   -1.6203   28.7238    8.4402 H   0  0  0  0  0  0  0  0  0  0  0  0
    0.0244   28.1621    8.9089 H   0  0  0  0  0  0  0  0  0  0  0  0
  1  2  1  0
  2  3  1  0
  2  4  1  0
  4  5  2  0
  4  6  1  0
  6  7  1  0
  7  8  1  0
  8  9  1  0
  9 10  1  0
 10 11  2  0
 10 12  1  0
 12 13  1  0
 13 14  1  0
 14 15  1  0
 14 16  1  0
 16 17  1  0
 17 18  1  0
 18 19  1  0
 19 20  1  0
 20 21  2  0
 21 22  1  0
 22 23  2  0
 23 24  1  0
 24 25  2  0
 25 26  1  0
 26 17  1  0
 25 20  1  0
  1 27  1  0
  1 28  1  0
  1 29  1  0
  2 30  1  0
  3 31  1  0
  3 32  1  0
  3 33  1  0
  6 34  1  0
  7 35  1  0
  7 36  1  0
  8 37  1  0
  8 38  1  0
  9 39  1  0
 12 40  1  0
 13 41  1  0
 13 42  1  0
 14 43  1  1
 15 44  1  0
 16 45  1  0
 16 46  1  0
 17 47  1  1
 18 48  1  0
 18 49  1  0
 19 50  1  0
 19 51  1  0
 21 52  1  0
 22 53  1  0
 23 54  1  0
 24 55  1  0
 26 56  1  0
 26 57  1  0
M  CHG  1  17   1
M  END
>  <vina_affinity>  (1) 
-7.954

$$$$
dec_C62937469
     RDKit          3D

 38 39  0  0  0  0  0  0  0  0999 V2000
   -1.8950   33.0680   10.4610 C   0  0  0  0  0  0  0  0  0  0  0  0
   -1.1530   32.2590    9.4040 C   0  0  0  0  0  0  0  0  0  0  0  0
   -1.1250   30.7530    9.6840 C   0  0  2  0  0  0  0  0  0  0  0  0
   -0.0920   29.9440    8.8580 C   0  0  0  0  0  0  0  0  0  0  0  0
    0.9820   29.6940    9.4990 O   0  0  0  0  0  0  0  0  0  0  0  0
   -0.3720   29.7330    7.6580 O   0  0  0  0  0  0  0  0  0  0  0  0
   -2.5180   30.1030    9.6990 C   0  0  0  0  0  0  0  0  0  0  0  0
   -2.5260   29.0840   10.8390 C   0  0  0  0  0  0  0  0  0  0  0  0
   -1.1210   29.0630   11.3330 N   0  0  2  0  0  0  0  0  0  0  0  0
   -0.8410   28.4290   12.6330 C   0  0  0  0  0  0  0  0  0  0  0  0
   -0.3260   27.0130   12.5020 C   0  0  0  0  0  0  0  0  0  0  0  0
    0.3190   26.6690   11.2950 C   0  0  0  0  0  0  0  0  0  0  0  0
    0.7740   25.3730   11.0670 C   0  0  0  0  0  0  0  0  0  0  0  0
    1.3830   25.0870    9.9100 F   0  0  0  0  0  0  0  0  0  0  0  0
    0.6020   24.3770   12.0150 C   0  0  0  0  0  0  0  0  0  0  0  0
   -0.0290   24.6830   13.2210 C   0  0  0  0  0  0  0  0  0  0  0  0
   -0.4930   25.9910   13.4750 C   0  0  0  0  0  0  0  0  0  0  0  0
   -1.1140   26.2400   14.7970 N   0  0  0  0  0  0  0  0  0  0  0  0
   -0.3950   26.6930   15.6960 O   0  0  0  0  0  0  0  0  0  0  0  0
   -2.2980   25.9160   14.9490 O   0  0  0  0  0  0  0  0  0  0  0  0
   -0.5670   30.4420   11.0680 C   0  0  0  0  0  0  0  0  0  0  0  0
   -1.5873   32.7325   11.4624 H   0  0  0  0  0  0  0  0  0  0  0  0
   -1.6547   34.1348   10.3418 H   0  0  0  0  0  0  0  0  0  0  0  0
   -2.9785   32.9206   10.3418 H   0  0  0  0  0  0  0  0  0  0  0  0
   -1.6451   32.4222    8.4338 H   0  0  0  0  0  0  0  0  0  0  0  0
   -0.1089   32.6053    9.4104 H   0  0  0  0  0  0  0  0  0  0  0  0
   -3.2895   30.8679    9.8711 H   0  0  0  0  0  0  0  0  0  0  0  0
   -2.7332   29.6157    8.7366 H   0  0  0  0  0  0  0  0  0  0  0  0
   -3.2138   29.3996   11.6373 H   0  0  0  0  0  0  0  0  0  0  0  0
   -2.8675   28.0916   10.5095 H   0  0  0  0  0  0  0  0  0  0  0  0
   -0.6500   28.4870   10.5800 H   0  0  0  0  0  0  0  0  0  0  0  0
   -0.0849   29.0295   13.1601 H   0  0  0  0  0  0  0  0  0  0  0  0
   -1.7898   28.3837   13.1878 H   0  0  0  0  0  0  0  0  0  0  0  0
    0.4647   27.4374   10.5215 H   0  0  0  0  0  0  0  0  0  0  0  0
    0.9594   23.3554   11.8186 H   0  0  0  0  0  0  0  0  0  0  0  0
   -0.1658   23.8984   13.9798 H   0  0  0  0  0  0  0  0  0  0  0  0
   -0.9255   31.1660   11.8145 H   0  0  0  0  0  0  0  0  0  0  0  0
    0.5303   30.4951   11.1237 H   0  0  0  0  0  0  0  0  0  0  0  0
  1  2  1  0
  3  2  1  6
  3  4  1  0
  4  5  2  0
  4  6  1  0
  3  7  1  0
  7  8  1  0
  8  9  1  0
  9 10  1  0
 10 11  1  0
 11 12  2  0
 12 13  1  0
 13 14  1  0
 13 15  2  0
 15 16  1  0
 16 17  2  0
 17 18  1  0
 18 19  2  0
 18 20  1  0
  9 21  1  0
 21  3  1  0
 17 11  1  0
  1 22  1  0
  1 23  1  0
  1 24  1  0
  2 25  1  0
  2 26  1  0
  7 27  1  0
  7 28  1  0
  8 29  1  0
  8 30  1  0
  9 31  1  6
 10 32  1  0
 10 33  1  0
 12 34  1  0
 15 35  1  0
 16 36  1  0
 21 37  1  0
 21 38  1  0
M  CHG  4   6  -1   9   1  18   1  20  -1
M  END
>  <vina_affinity>  (1) 
-7.067

$$$$
dec_C50829430
     RDKit          3D

 33 35  0  0  0  0  0  0  0  0999 V2000
    4.4310   27.8690    8.5830 C   0  0  0  0  0  0  0  0  0  0  0  0
    3.1290   27.9470    9.3650 C   0  0  0  0  0  0  0  0  0  0  0  0
    2.6010   26.5560    9.7110 C   0  0  0  0  0  0  0  0  0  0  0  0
    1.8820   26.5910   10.9740 N   0  0  0  0  0  0  0  0  0  0  0  0
    0.8950   25.7120   11.3120 C   0  0  0  0  0  0  0  0  0  0  0  0
    0.7650   24.0580   10.8200 S   0  0  0  0  0  0  0  0  0  0  0  0
   -0.6630   23.8040   11.6400 N   0  0  0  0  0  0  0  0  0  0  0  0
   -1.0770   24.8710   12.2940 N   0  0  0  0  0  0  0  0  0  0  0  0
   -0.2100   25.9490   12.1300 C   0  0  0  0  0  0  0  0  0  0  0  0
   -0.5520   27.2130   12.8450 C   0  0  0  0  0  0  0  0  0  0  0  0
   -1.2310   28.1250   11.9410 N   0  0  0  0  0  0  0  0  0  0  0  0
   -2.5670   27.9170   11.6320 C   0  0  0  0  0  0  0  0  0  0  0  0
   -3.3080   28.6350   10.8450 N   0  0  0  0  0  0  0  0  0  0  0  0
   -2.6320   29.7120   10.2630 C   0  0  0  0  0  0  0  0  0  0  0  0
   -3.2320   30.6290    9.3740 C   0  0  0  0  0  0  0  0  0  0  0  0
   -2.3220   31.5800    8.9550 C   0  0  0  0  0  0  0  0  0  0  0  0
   -0.7640   31.3350    9.6490 S   0  0  0  0  0  0  0  0  0  0  0  0
   -1.3120   29.9740   10.4980 C   0  0  0  0  0  0  0  0  0  0  0  0
   -0.5060   29.1690   11.3690 C   0  0  0  0  0  0  0  0  0  0  0  0
    0.6900   29.3510   11.5950 O   0  0  0  0  0  0  0  0  0  0  0  0
    5.2772   27.8183    9.2839 H   0  0  0  0  0  0  0  0  0  0  0  0
    4.4250   26.9696    7.9497 H   0  0  0  0  0  0  0  0  0  0  0  0
    4.5325   28.7627    7.9497 H   0  0  0  0  0  0  0  0  0  0  0  0
    3.3042   28.5050   10.2966 H   0  0  0  0  0  0  0  0  0  0  0  0
    2.3802   28.4553    8.7398 H   0  0  0  0  0  0  0  0  0  0  0  0
    1.9212   26.2173    8.9153 H   0  0  0  0  0  0  0  0  0  0  0  0
    3.4499   25.8623    9.8007 H   0  0  0  0  0  0  0  0  0  0  0  0
    1.9350   27.5010   11.4490 H   0  0  0  0  0  0  0  0  0  0  0  0
   -1.2114   26.9840   13.6952 H   0  0  0  0  0  0  0  0  0  0  0  0
    0.3729   27.6850   13.2079 H   0  0  0  0  0  0  0  0  0  0  0  0
   -3.0507   27.0497   12.1051 H   0  0  0  0  0  0  0  0  0  0  0  0
   -4.2846   30.5915    9.0568 H   0  0  0  0  0  0  0  0  0  0  0  0
   -2.5636   32.3977    8.2600 H   0  0  0  0  0  0  0  0  0  0  0  0
  1  2  1  0
  2  3  1  0
  3  4  1  0
  4  5  1  0
  5  6  1  0
  6  7  1  0
  7  8  2  0
  8  9  1  0
  9 10  1  0
 10 11  1  0
 11 12  1  0
 12 13  2  0
 13 14  1  0
 14 15  1  0
 15 16  2  0
 16 17  1  0
 17 18  1  0
 18 19  1  0
 19 20  2  0
  9  5  2  0
 19 11  1  0
 18 14  2  0
  1 21  1  0
  1 22  1  0
  1 23  1  0
  2 24  1  0
  2 25  1  0
  3 26  1  0
  3 27  1  0
  4 28  1  0
 10 29  1  0
 10 30  1  0
 12 31  1  0
 15 32  1  0
 16 33  1  0
M  END
>  <vina_affinity>  (1) 
-6.254

$$$$
dec_C01291490
     RDKit          3D

 44 47  0  0  0  0  0  0  0  0999 V2000
    3.3490   24.6450    9.0090 N   0  0  0  0  0  0  0  0  0  0  0  0
    3.4640   26.0840    8.9950 N   0  0  0  0  0  0  0  0  0  0  0  0
    2.6670   26.9670    9.6820 C   0  0  0  0  0  0  0  0  0  0  0  0
    1.3630   26.4850   10.7110 S   0  0  0  0  0  0  0  0  0  0  0  0
    0.5180   28.0940   10.8840 C   0  0  0  0  0  0  0  0  0  0  0  0
   -0.5470   28.2670    9.7980 C   0  0  0  0  0  0  0  0  0  0  0  0
   -1.1510   27.2870    9.3430 O   0  0  0  0  0  0  0  0  0  0  0  0
   -0.8870   29.5670    9.4110 N   0  0  0  0  0  0  0  0  0  0  0  0
   -2.2230   30.0440    9.7760 C   0  0  0  0  0  0  0  0  0  0  0  0
   -2.1310   31.4060   10.4420 C   0  0  0  0  0  0  0  0  0  0  0  0
   -1.5490   32.4120    9.4650 C   0  0  0  0  0  0  0  0  0  0  0  0
   -0.3810   31.8580    8.6850 C   0  0  0  0  0  0  0  0  0  0  0  0
    0.3940   32.7640    7.9390 C   0  0  0  0  0  0  0  0  0  0  0  0
    1.4430   32.3140    7.1430 C   0  0  0  0  0  0  0  0  0  0  0  0
    1.7060   30.9530    7.0620 C   0  0  0  0  0  0  0  0  0  0  0  0
    0.9380   30.0440    7.7960 C   0  0  0  0  0  0  0  0  0  0  0  0
   -0.0880   30.4780    8.6460 C   0  0  0  0  0  0  0  0  0  0  0  0
    3.0280   28.1990    9.4240 N   0  0  0  0  0  0  0  0  0  0  0  0
    4.1010   28.1360    8.5650 N   0  0  0  0  0  0  0  0  0  0  0  0
    4.3630   26.8630    8.2890 C   0  0  0  0  0  0  0  0  0  0  0  0
    5.4420   26.4100    7.4120 C   0  0  0  0  0  0  0  0  0  0  0  0
    6.7030   26.0080    7.8600 C   0  0  0  0  0  0  0  0  0  0  0  0
    7.6700   25.5820    6.9480 C   0  0  0  0  0  0  0  0  0  0  0  0
    7.3460   25.5620    5.6020 C   0  0  0  0  0  0  0  0  0  0  0  0
    6.1400   25.9290    5.1220 N   0  0  0  0  0  0  0  0  0  0  0  0
    5.2220   26.3360    6.0360 C   0  0  0  0  0  0  0  0  0  0  0  0
    4.2060   24.2600    8.5870 H   0  0  0  0  0  0  0  0  0  0  0  0
    2.6090   24.3530    8.3710 H   0  0  0  0  0  0  0  0  0  0  0  0
    0.0373   28.1447   11.8721 H   0  0  0  0  0  0  0  0  0  0  0  0
    1.2626   28.8969   10.7794 H   0  0  0  0  0  0  0  0  0  0  0  0
   -2.8403   30.1242    8.8691 H   0  0  0  0  0  0  0  0  0  0  0  0
   -2.6785   29.3312   10.4791 H   0  0  0  0  0  0  0  0  0  0  0  0
   -3.1358   31.7323   10.7485 H   0  0  0  0  0  0  0  0  0  0  0  0
   -1.4806   31.3371   11.3265 H   0  0  0  0  0  0  0  0  0  0  0  0
   -2.3358   32.7101    8.7564 H   0  0  0  0  0  0  0  0  0  0  0  0
   -1.1820   33.2687   10.0493 H   0  0  0  0  0  0  0  0  0  0  0  0
    0.1686   33.8397    7.9852 H   0  0  0  0  0  0  0  0  0  0  0  0
    2.0596   33.0315    6.5818 H   0  0  0  0  0  0  0  0  0  0  0  0
    2.5207   30.5890    6.4187 H   0  0  0  0  0  0  0  0  0  0  0  0
    1.1432   28.9672    7.7044 H   0  0  0  0  0  0  0  0  0  0  0  0
    6.9345   26.0273    8.9352 H   0  0  0  0  0  0  0  0  0  0  0  0
    8.6672   25.2691    7.2910 H   0  0  0  0  0  0  0  0  0  0  0  0
    8.1124   25.2293    4.8865 H   0  0  0  0  0  0  0  0  0  0  0  0
    4.2295   26.6297    5.6635 H   0  0  0  0  0  0  0  0  0  0  0  0
  1  2  1  0
  2  3  1  0
  3  4  1  0
  4  5  1  0
  5  6  1  0
  6  7  2  0
  6  8  1  0
  8  9  1  0
  9 10  1  0
 10 11  1  0
 11 12  1  0
 12 13  2  0
 13 14  1  0
 14 15  2  0
 15 16  1  0
 16 17  2  0
  3 18  2  0
 18 19  1  0
 19 20  2  0
 20 21  1  0
 21 22  2  0
 22 23  1  0
 23 24  2  0
 24 25  1  0
 25 26  2  0
 20  2  1  0
 26 21  1  0
 17  8  1  0
 17 12  1  0
  1 27  1  0
  1 28  1  0
  5 29  1  0
  5 30  1  0
  9 31  1  0
  9 32  1  0
 10 33  1  0
 10 34  1  0
 11 35  1  0
 11 36  1  0
 13 37  1  0
 14 38  1  0
 15 39  1  0
 16 40  1  0
 22 41  1  0
 23 42  1  0
 24 43  1  0
 26 44  1  0
M  END
>  <vina_affinity>  (1) 
-8.574

$$$$
dec_C06530416
     RDKit          3D

 35 37  0  0  0  0  0  0  0  0999 V2000
    1.4800   31.7110    7.0860 C   0  0  0  0  0  0  0  0  0  0  0  0
    0.8500   30.4430    7.6340 C   0  0  0  0  0  0  0  0  0  0  0  0
   -0.3420   30.7050    8.5110 C   0  0  0  0  0  0  0  0  0  0  0  0
   -0.7680   31.8930    8.8170 N   0  0  0  0  0  0  0  0  0  0  0  0
   -1.9450   31.7590    9.6090 N   0  0  0  0  0  0  0  0  0  0  0  0
   -2.1560   30.4950    9.7790 C   0  0  0  0  0  0  0  0  0  0  0  0
   -3.1450   29.9900   10.5210 O   0  0  0  0  0  0  0  0  0  0  0  0
   -2.9870   28.6670   10.9830 C   0  0  0  0  0  0  0  0  0  0  0  0
   -4.1260   28.1930   11.5860 N   0  0  0  0  0  0  0  0  0  0  0  0
   -1.8100   28.0050   10.8750 C   0  0  0  0  0  0  0  0  0  0  0  0
   -1.7040   26.6920   11.4360 C   0  0  0  0  0  0  0  0  0  0  0  0
   -1.6290   25.6230   11.8810 N   0  0  0  0  0  0  0  0  0  0  0  0
   -0.6060   28.6320   10.1330 C   0  0  2  0  0  0  0  0  0  0  0  0
    0.2520   27.5610    9.4340 C   0  0  0  0  0  0  0  0  0  0  0  0
    1.2980   27.1610   10.4610 C   0  0  0  0  0  0  0  0  0  0  0  0
    1.2610   28.1320   11.5110 O   0  0  0  0  0  0  0  0  0  0  0  0
    0.4420   29.2380   11.0940 C   0  0  2  0  0  0  0  0  0  0  0  0
   -0.0510   29.9630   12.3360 C   0  0  0  0  0  0  0  0  0  0  0  0
   -1.1870   29.6040    9.1010 C   0  0  2  0  0  0  0  0  0  0  0  0
    1.7987   32.3525    7.9208 H   0  0  0  0  0  0  0  0  0  0  0  0
    2.3532   31.4500    6.4701 H   0  0  0  0  0  0  0  0  0  0  0  0
    0.7445   32.2492    6.4701 H   0  0  0  0  0  0  0  0  0  0  0  0
    0.5304   29.8174    6.7875 H   0  0  0  0  0  0  0  0  0  0  0  0
    1.6084   29.9430    8.2543 H   0  0  0  0  0  0  0  0  0  0  0  0
   -4.2900   28.6270   12.4930 H   0  0  0  0  0  0  0  0  0  0  0  0
   -4.2310   27.1800   11.6140 H   0  0  0  0  0  0  0  0  0  0  0  0
   -0.3648   26.6946    9.1531 H   0  0  0  0  0  0  0  0  0  0  0  0
    0.7075   27.9380    8.5065 H   0  0  0  0  0  0  0  0  0  0  0  0
    1.0675   26.1635   10.8633 H   0  0  0  0  0  0  0  0  0  0  0  0
    2.2972   27.1230   10.0026 H   0  0  0  0  0  0  0  0  0  0  0  0
    0.9463   30.0355   10.5286 H   0  0  0  0  0  0  0  0  0  0  0  0
    0.3065   29.4372   13.2336 H   0  0  0  0  0  0  0  0  0  0  0  0
    0.3346   30.9932   12.3365 H   0  0  0  0  0  0  0  0  0  0  0  0
   -1.1508   29.9831   12.3365 H   0  0  0  0  0  0  0  0  0  0  0  0
   -1.4839   28.8777    8.3301 H   0  0  0  0  0  0  0  0  0  0  0  0
  1  2  1  0
  2  3  1  0
  3  4  2  0
  4  5  1  0
  5  6  2  0
  6  7  1  0
  7  8  1  0
  8  9  1  0
  8 10  2  0
 10 11  1  0
 11 12  3  0
 10 13  1  0
 13 14  1  6
 14 15  1  0
 15 16  1  0
 16 17  1  0
 17 18  1  0
 13 19  1  0
 19  3  1  0
 19  6  1  0
 17 13  1  0
  1 20  1  0
  1 21  1  0
  1 22  1  0
  2 23  1  0
  2 24  1  0
  9 25  1  0
  9 26  1  0
 14 27  1  0
 14 28  1  0
 15 29  1  0
 15 30  1  0
 17 31  1  6
 18 32  1  0
 18 33  1  0
 18 34  1  0
 19 35  1  6
M  END
>  <vina_affinity>  (1) 
-7.041

$$$$
dec_C32109259
     RDKit          3D

 43 44  0  0  0  0  0  0  0  0999 V2000
    2.9680   21.4940    9.5900 C   0  0  0  0  0  0  0  0  0  0  0  0
    2.7200   22.8370    9.9860 O   0  0  0  0  0  0  0  0  0  0  0  0
    1.7610   23.0270   10.9430 C   0  0  0  0  0  0  0  0  0  0  0  0
    0.7130   22.1520   11.2390 C   0  0  0  0  0  0  0  0  0  0  0  0
   -0.2050   22.4700   12.2450 C   0  0  0  0  0  0  0  0  0  0  0  0
   -0.0620   23.6530   12.9690 C   0  0  0  0  0  0  0  0  0  0  0  0
   -1.0670   23.9750   14.0020 C   0  0  0  0  0  0  0  0  0  0  0  0
   -2.1280   24.7270   13.9110 N   0  0  0  0  0  0  0  0  0  0  0  0
   -2.2740   25.5310   12.8080 N   0  0  0  0  0  0  0  0  0  0  0  0
   -1.8340   26.8640   12.8380 C   0  0  0  0  0  0  0  0  0  0  0  0
   -1.1700   27.3620   13.7440 O   0  0  0  0  0  0  0  0  0  0  0  0
   -2.3040   27.6600   11.6030 C   0  0  1  0  0  0  0  0  0  0  0  0
   -3.8310   27.6340   11.5800 C   0  0  0  0  0  0  0  0  0  0  0  0
   -1.9110   29.0330   11.5940 O   0  0  0  0  0  0  0  0  0  0  0  0
   -0.9950   29.3430   10.6220 C   0  0  0  0  0  0  0  0  0  0  0  0
    0.2940   28.8010   10.6490 C   0  0  0  0  0  0  0  0  0  0  0  0
    1.2050   29.0930    9.6310 C   0  0  0  0  0  0  0  0  0  0  0  0
    0.8360   29.9220    8.5660 C   0  0  0  0  0  0  0  0  0  0  0  0
    1.8090   30.2190    7.4640 C   0  0  0  0  0  0  0  0  0  0  0  0
   -0.4710   30.4210    8.5130 C   0  0  0  0  0  0  0  0  0  0  0  0
   -1.3840   30.1290    9.5320 C   0  0  0  0  0  0  0  0  0  0  0  0
   -3.1440   30.8180    9.3740 Br  0  0  0  0  0  0  0  0  0  0  0  0
    0.9720   24.5420   12.6710 C   0  0  0  0  0  0  0  0  0  0  0  0
    1.8770   24.2250   11.6570 C   0  0  0  0  0  0  0  0  0  0  0  0
    3.0844   20.8637   10.4840 H   0  0  0  0  0  0  0  0  0  0  0  0
    2.1225   21.1266    8.9899 H   0  0  0  0  0  0  0  0  0  0  0  0
    3.8889   21.4528    8.9899 H   0  0  0  0  0  0  0  0  0  0  0  0
    0.6096   21.2106   10.6795 H   0  0  0  0  0  0  0  0  0  0  0  0
   -1.0391   21.7874   12.4649 H   0  0  0  0  0  0  0  0  0  0  0  0
   -0.8963   23.5157   14.9868 H   0  0  0  0  0  0  0  0  0  0  0  0
   -3.1570   25.3740   12.3330 H   0  0  0  0  0  0  0  0  0  0  0  0
   -1.8343   27.1808   10.7313 H   0  0  0  0  0  0  0  0  0  0  0  0
   -4.2132   27.6275   12.6115 H   0  0  0  0  0  0  0  0  0  0  0  0
   -4.2051   28.5259   11.0560 H   0  0  0  0  0  0  0  0  0  0  0  0
   -4.1745   26.7299   11.0560 H   0  0  0  0  0  0  0  0  0  0  0  0
    0.5923   28.1408   11.4768 H   0  0  0  0  0  0  0  0  0  0  0  0
    2.2191   28.6684    9.6669 H   0  0  0  0  0  0  0  0  0  0  0  0
    2.7757   30.5141    7.8981 H   0  0  0  0  0  0  0  0  0  0  0  0
    1.9447   29.3214    6.8428 H   0  0  0  0  0  0  0  0  0  0  0  0
    1.4203   31.0394    6.8428 H   0  0  0  0  0  0  0  0  0  0  0  0
   -0.7823   31.0472    7.6639 H   0  0  0  0  0  0  0  0  0  0  0  0
    1.0726   25.4839   13.2303 H   0  0  0  0  0  0  0  0  0  0  0  0
    2.6908   24.9248   11.4162 H   0  0  0  0  0  0  0  0  0  0  0  0
  1  2  1  0
  2  3  1  0
  3  4  2  0
  4  5  1  0
  5  6  2  0
  6  7  1  0
  7  8  2  0
  8  9  1  0
  9 10  1  0
 10 11  2  0
 10 12  1  0
 12 13  1  0
 12 14  1  0
 14 15  1  0
 15 16  2  0
 16 17  1  0
 17 18  2  0
 18 19  1  0
 18 20  1  0
 20 21  2  0
 21 22  1  0
  6 23  1  0
 23 24  2  0
 24  3  1  0
 21 15  1  0
  1 25  1  0
  1 26  1  0
  1 27  1  0
  4 28  1  0
  5 29  1  0
  7 30  1  0
  9 31  1  0
 12 32  1  6
 13 33  1  0
 13 34  1  0
 13 35  1  0
 16 36  1  0
 17 37  1  0
 19 38  1  0
 19 39  1  0
 19 40  1  0
 20 41  1  0
 23 42  1  0
 24 43  1  0
M  END
>  <vina_affinity>  (1) 
-7.354

$$$$
dec_C57084881
     RDKit          3D

 41 43  0  0  0  0  0  0  0  0999 V2000
    2.2300   23.6550   10.6610 C   0  0  0  0  0  0  0  0  0  0  0  0
    1.2650   24.8030   10.3840 C   0  0  2  0  0  0  0  0  0  0  0  0
    2.0070   26.1560   10.3970 C   0  0  0  0  0  0  0  0  0  0  0  0
    1.0750   27.2890   10.2230 N   0  0  0  0  0  0  0  0  0  0  0  0
    1.8210   28.5650   10.2530 C   0  0  0  0  0  0  0  0  0  0  0  0
    1.8620   29.3180    8.9610 C   0  0  0  0  0  0  0  0  0  0  0  0
    2.8160   29.3290    7.9690 C   0  0  0  0  0  0  0  0  0  0  0  0
    4.0730   28.7240    7.9080 O   0  0  0  0  0  0  0  0  0  0  0  0
    2.2850   30.0690    6.9540 N   0  0  0  0  0  0  0  0  0  0  0  0
    1.1010   30.5860    7.1760 N   0  0  0  0  0  0  0  0  0  0  0  0
    0.8550   30.1750    8.4170 N   0  0  0  0  0  0  0  0  0  0  0  0
   -0.3500   30.7650    8.9790 C   0  0  0  0  0  0  0  0  0  0  0  0
   -0.3950   32.1340    9.2110 C   0  0  0  0  0  0  0  0  0  0  0  0
   -1.5500   32.6950    9.7610 C   0  0  0  0  0  0  0  0  0  0  0  0
   -2.6460   31.8850   10.0660 C   0  0  0  0  0  0  0  0  0  0  0  0
   -2.5950   30.5130    9.8140 C   0  0  0  0  0  0  0  0  0  0  0  0
   -1.4440   29.9480    9.2620 C   0  0  0  0  0  0  0  0  0  0  0  0
    0.0390   27.2120   11.2690 C   0  0  0  0  0  0  0  0  0  0  0  0
   -0.6860   25.8480   11.2820 C   0  0  1  0  0  0  0  0  0  0  0  0
   -1.6190   25.6560   10.0860 C   0  0  0  0  0  0  0  0  0  0  0  0
    0.2470   24.7610   11.3970 O   0  0  0  0  0  0  0  0  0  0  0  0
    2.3408   23.5232   11.7474 H   0  0  0  0  0  0  0  0  0  0  0  0
    1.8351   22.7290   10.2177 H   0  0  0  0  0  0  0  0  0  0  0  0
    3.2101   23.8848   10.2177 H   0  0  0  0  0  0  0  0  0  0  0  0
    0.8136   24.6974    9.3865 H   0  0  0  0  0  0  0  0  0  0  0  0
    2.5290   26.2676   11.3588 H   0  0  0  0  0  0  0  0  0  0  0  0
    2.7202   26.1654    9.5596 H   0  0  0  0  0  0  0  0  0  0  0  0
    1.3530   29.2134   11.0084 H   0  0  0  0  0  0  0  0  0  0  0  0
    2.8639   28.2996   10.4809 H   0  0  0  0  0  0  0  0  0  0  0  0
    2.7750   30.2110    6.0860 H   0  0  0  0  0  0  0  0  0  0  0  0
    0.4688   32.7688    8.9645 H   0  0  0  0  0  0  0  0  0  0  0  0
   -1.5964   33.7769    9.9543 H   0  0  0  0  0  0  0  0  0  0  0  0
   -3.5513   32.3291   10.5057 H   0  0  0  0  0  0  0  0  0  0  0  0
   -3.4612   29.8775   10.0502 H   0  0  0  0  0  0  0  0  0  0  0  0
   -1.4005   28.8690    9.0524 H   0  0  0  0  0  0  0  0  0  0  0  0
    0.5141   27.3687   12.2487 H   0  0  0  0  0  0  0  0  0  0  0  0
   -0.7109   27.9879   11.0554 H   0  0  0  0  0  0  0  0  0  0  0  0
   -1.3260   25.8467   12.1767 H   0  0  0  0  0  0  0  0  0  0  0  0
   -2.6373   25.4464   10.4453 H   0  0  0  0  0  0  0  0  0  0  0  0
   -1.6265   26.5714    9.4761 H   0  0  0  0  0  0  0  0  0  0  0  0
   -1.2644   24.8120    9.4761 H   0  0  0  0  0  0  0  0  0  0  0  0
  1  2  1  0
  2  3  1  0
  3  4  1  0
  4  5  1  0
  5  6  1  0
  6  7  2  0
  7  8  1  0
  7  9  1  0
  9 10  2  0
 10 11  1  0
 11 12  1  0
 12 13  2  0
 13 14  1  0
 14 15  2  0
 15 16  1  0
 16 17  2  0
  4 18  1  0
 18 19  1  0
 19 20  1  0
 19 21  1  0
 21  2  1  0
 11  6  1  0
 17 12  1  0
  1 22  1  0
  1 23  1  0
  1 24  1  0
  2 25  1  6
  3 26  1  0
  3 27  1  0
  5 28  1  0
  5 29  1  0
  9 30  1  0
 13 31  1  0
 14 32  1  0
 15 33  1  0
 16 34  1  0
 17 35  1  0
 18 36  1  0
 18 37  1  0
 19 38  1  1
 20 39  1  0
 20 40  1  0
 20 41  1  0
M  CHG  2   8  -1   9   1
M  END
>  <vina_affinity>  (1) 
-7.808

$$$$
dec_C13066542
     RDKit          3D

 56 57  0  0  0  0  0  0  0  0999 V2000
   -0.6840   26.8550   13.7570 C   0  0  0  0  0  0  0  0  0  0  0  0
   -2.0740   26.4660   13.2960 C   0  0  0  0  0  0  0  0  0  0  0  0
   -2.6300   26.9130   12.2070 N   0  0  0  0  0  0  0  0  0  0  0  0
   -1.9540   27.8040   11.4310 N   0  0  0  0  0  0  0  0  0  0  0  0
   -1.3120   27.4260   10.2750 C   0  0  0  0  0  0  0  0  0  0  0  0
   -1.1450   25.8580    9.7090 S   0  0  0  0  0  0  0  0  0  0  0  0
   -0.6930   28.4220    9.5600 N   0  0  0  0  0  0  0  0  0  0  0  0
   -0.9220   29.8170    9.5210 C   0  0  0  0  0  0  0  0  0  0  0  0
   -2.0770   30.3760   10.0870 C   0  0  0  0  0  0  0  0  0  0  0  0
   -2.3330   31.7430    9.9970 C   0  0  0  0  0  0  0  0  0  0  0  0
   -1.4470   32.5640    9.3110 C   0  0  0  0  0  0  0  0  0  0  0  0
   -0.3060   32.0200    8.7150 C   0  0  0  0  0  0  0  0  0  0  0  0
    0.7070   33.1150    7.8360 Cl  0  0  0  0  0  0  0  0  0  0  0  0
   -0.0140   30.6450    8.8210 C   0  0  0  0  0  0  0  0  0  0  0  0
    1.2240   30.0690    8.1780 C   0  0  0  0  0  0  0  0  0  0  0  0
   -2.8530   25.5110   14.1430 C   0  0  0  0  0  0  0  0  0  0  0  0
   -4.2440   25.6710   14.2410 C   0  0  0  0  0  0  0  0  0  0  0  0
   -5.0030   24.7890   15.0150 C   0  0  0  0  0  0  0  0  0  0  0  0
   -4.3610   23.7520   15.6950 C   0  0  0  0  0  0  0  0  0  0  0  0
   -5.2990   22.6020   16.6850 S   0  0  0  0  0  0  0  0  0  0  0  0
   -6.7030   22.9090   16.5030 O   0  0  0  0  0  0  0  0  0  0  0  0
   -4.6880   22.6170   17.9980 O   0  0  0  0  0  0  0  0  0  0  0  0
   -4.9490   21.1300   15.9210 N   0  0  0  0  0  0  0  0  0  0  0  0
   -6.1030   20.3710   15.3840 C   0  0  0  0  0  0  0  0  0  0  0  0
   -3.9720   20.2390   16.6130 C   0  0  0  0  0  0  0  0  0  0  0  0
   -2.7030   19.9850   15.7970 C   0  0  0  0  0  0  0  0  0  0  0  0
   -1.4800   19.8170   16.6930 C   0  0  0  0  0  0  0  0  0  0  0  0
   -1.1360   21.0460   17.5430 C   0  0  0  0  0  0  0  0  0  0  0  0
   -0.3940   21.8880   16.9640 O   0  0  0  0  0  0  0  0  0  0  0  0
   -1.6130   21.0690   18.7110 O   0  0  0  0  0  0  0  0  0  0  0  0
   -2.9730   23.5990   15.6260 C   0  0  0  0  0  0  0  0  0  0  0  0
   -2.2190   24.4810   14.8500 C   0  0  0  0  0  0  0  0  0  0  0  0
   -0.6515   26.8641   14.8565 H   0  0  0  0  0  0  0  0  0  0  0  0
    0.0463   26.1267   13.3746 H   0  0  0  0  0  0  0  0  0  0  0  0
   -0.4378   27.8566   13.3746 H   0  0  0  0  0  0  0  0  0  0  0  0
   -1.7410   28.7200   11.8020 H   0  0  0  0  0  0  0  0  0  0  0  0
   -0.0280   28.0520    8.8890 H   0  0  0  0  0  0  0  0  0  0  0  0
   -2.7925   29.7249   10.6105 H   0  0  0  0  0  0  0  0  0  0  0  0
   -3.2317   32.1695   10.4666 H   0  0  0  0  0  0  0  0  0  0  0  0
   -1.6438   33.6437    9.2368 H   0  0  0  0  0  0  0  0  0  0  0  0
    1.9254   29.7427    8.9601 H   0  0  0  0  0  0  0  0  0  0  0  0
    0.9456   29.2079    7.5527 H   0  0  0  0  0  0  0  0  0  0  0  0
    1.7033   30.8366    7.5527 H   0  0  0  0  0  0  0  0  0  0  0  0
   -4.7392   26.4947   13.7059 H   0  0  0  0  0  0  0  0  0  0  0  0
   -6.0939   24.9103   15.0877 H   0  0  0  0  0  0  0  0  0  0  0  0
   -6.7025   19.9767   16.2177 H   0  0  0  0  0  0  0  0  0  0  0  0
   -6.7251   21.0368   14.7678 H   0  0  0  0  0  0  0  0  0  0  0  0
   -5.7380   19.5361   14.7678 H   0  0  0  0  0  0  0  0  0  0  0  0
   -3.6864   20.7075   17.5664 H   0  0  0  0  0  0  0  0  0  0  0  0
   -4.4649   19.2668   16.7609 H   0  0  0  0  0  0  0  0  0  0  0  0
   -2.8384   19.0690   15.2033 H   0  0  0  0  0  0  0  0  0  0  0  0
   -2.5341   20.8555   15.1460 H   0  0  0  0  0  0  0  0  0  0  0  0
   -1.6659   18.9717   17.3719 H   0  0  0  0  0  0  0  0  0  0  0  0
   -0.6234   19.6527   16.0227 H   0  0  0  0  0  0  0  0  0  0  0  0
   -2.4778   22.7880   16.1802 H   0  0  0  0  0  0  0  0  0  0  0  0
   -1.1264   24.3672   14.7936 H   0  0  0  0  0  0  0  0  0  0  0  0
  1  2  1  0
  2  3  2  0
  3  4  1  0
  4  5  1  0
  5  6  2  0
  5  7  1  0
  7  8  1  0
  8  9  2  0
  9 10  1  0
 10 11  2  0
 11 12  1  0
 12 13  1  0
 12 14  2  0
 14 15  1  0
  2 16  1  0
 16 17  2  0
 17 18  1  0
 18 19  2  0
 19 20  1  0
 20 21  2  0
 20 22  2  0
 20 23  1  0
 23 24  1  0
 23 25  1  0
 25 26  1  0
 26 27  1  0
 27 28  1  0
 28 29  2  0
 28 30  1  0
 19 31  1  0
 31 32  2  0
 14  8  1  0
 32 16  1  0
  1 33  1  0
  1 34  1  0
  1 35  1  0
  4 36  1  0
  7 37  1  0
  9 38  1  0
 10 39  1  0
 11 40  1  0
 15 41  1  0
 15 42  1  0
 15 43  1  0
 17 44  1  0
 18 45  1  0
 24 46  1  0
 24 47  1  0
 24 48  1  0
 25 49  1  0
 25 50  1  0
 26 51  1  0
 26 52  1  0
 27 53  1  0
 27 54  1  0
 31 55  1  0
 32 56  1  0
M  CHG  1  30  -1
M  END
>  <vina_affinity>  (1) 
-8.806

$$$$
dec_C67551137
     RDKit          3D

 54 56  0  0  0  0  0  0  0  0999 V2000
   -3.4100   24.4070   15.2150 C   0  0  0  0  0  0  0  0  0  0  0  0
   -2.2020   24.6530   14.3500 C   0  0  0  0  0  0  0  0  0  0  0  0
   -2.0760   25.9070   13.7190 C   0  0  0  0  0  0  0  0  0  0  0  0
   -0.9660   26.2160   12.9260 C   0  0  0  0  0  0  0  0  0  0  0  0
   -0.9300   27.4900   12.3250 N   0  0  0  0  0  0  0  0  0  0  0  0
   -1.2870   27.8160   11.0350 C   0  0  0  0  0  0  0  0  0  0  0  0
   -1.5200   26.9950   10.1520 O   0  0  0  0  0  0  0  0  0  0  0  0
   -1.3320   29.1900   10.7830 N   0  0  0  0  0  0  0  0  0  0  0  0
   -0.5300   30.0380   11.6570 C   0  0  0  0  0  0  0  0  0  0  0  0
   -1.8350   29.7830    9.5220 C   0  0  1  0  0  0  0  0  0  0  0  0
   -3.1840   30.4690    9.7700 C   0  0  0  0  0  0  0  0  0  0  0  0
   -0.7800   30.6310    8.8200 C   0  0  0  0  0  0  0  0  0  0  0  0
   -0.8730   32.0330    8.9190 C   0  0  0  0  0  0  0  0  0  0  0  0
    0.0610   32.8620    8.2940 C   0  0  0  0  0  0  0  0  0  0  0  0
    1.1010   32.3040    7.5570 C   0  0  0  0  0  0  0  0  0  0  0  0
    1.1990   30.9230    7.4480 C   0  0  0  0  0  0  0  0  0  0  0  0
    2.2300   30.4200    6.7110 O   0  0  0  0  0  0  0  0  0  0  0  0
    0.2720   30.0840    8.0670 C   0  0  0  0  0  0  0  0  0  0  0  0
    0.0140   25.2480   12.7480 C   0  0  0  0  0  0  0  0  0  0  0  0
   -0.1070   23.9930   13.3600 C   0  0  0  0  0  0  0  0  0  0  0  0
   -1.2110   23.6640   14.1620 C   0  0  0  0  0  0  0  0  0  0  0  0
   -1.3450   22.3990   14.7470 N   0  0  0  0  0  0  0  0  0  0  0  0
   -0.7710   22.1930   16.0860 C   0  0  0  0  0  0  0  0  0  0  0  0
   -1.2110   20.8510   16.6760 C   0  0  0  0  0  0  0  0  0  0  0  0
   -0.5260   19.4190   15.7640 S   0  0  0  0  0  0  0  0  0  0  0  0
   -0.2280   20.2240   14.1500 C   0  0  0  0  0  0  0  0  0  0  0  0
   -1.2880   21.2700   13.7920 C   0  0  0  0  0  0  0  0  0  0  0  0
   -3.1204   24.4660   16.2746 H   0  0  0  0  0  0  0  0  0  0  0  0
   -4.1752   25.1678   15.0011 H   0  0  0  0  0  0  0  0  0  0  0  0
   -3.8167   23.4076   15.0011 H   0  0  0  0  0  0  0  0  0  0  0  0
   -2.8677   26.6589   13.8531 H   0  0  0  0  0  0  0  0  0  0  0  0
   -0.3720   28.1820   12.8010 H   0  0  0  0  0  0  0  0  0  0  0  0
   -0.7555   29.7996   12.7069 H   0  0  0  0  0  0  0  0  0  0  0  0
    0.5378   29.8599   11.4617 H   0  0  0  0  0  0  0  0  0  0  0  0
   -0.7673   31.0942   11.4617 H   0  0  0  0  0  0  0  0  0  0  0  0
   -2.0357   28.9855    8.7915 H   0  0  0  0  0  0  0  0  0  0  0  0
   -3.3570   30.5570   10.8527 H   0  0  0  0  0  0  0  0  0  0  0  0
   -3.1742   31.4716    9.3176 H   0  0  0  0  0  0  0  0  0  0  0  0
   -3.9884   29.8704    9.3176 H   0  0  0  0  0  0  0  0  0  0  0  0
   -1.6939   32.4818    9.4975 H   0  0  0  0  0  0  0  0  0  0  0  0
   -0.0254   33.9549    8.3842 H   0  0  0  0  0  0  0  0  0  0  0  0
    1.8405   32.9523    7.0641 H   0  0  0  0  0  0  0  0  0  0  0  0
    1.8790   29.7760    6.0760 H   0  0  0  0  0  0  0  0  0  0  0  0
    0.3651   28.9927    7.9652 H   0  0  0  0  0  0  0  0  0  0  0  0
    0.8915   25.4680   12.1222 H   0  0  0  0  0  0  0  0  0  0  0  0
    0.6851   23.2451   13.2076 H   0  0  0  0  0  0  0  0  0  0  0  0
    0.3264   22.2102   16.0125 H   0  0  0  0  0  0  0  0  0  0  0  0
   -1.1281   22.9975   16.7457 H   0  0  0  0  0  0  0  0  0  0  0  0
   -0.8714   20.7978   17.7209 H   0  0  0  0  0  0  0  0  0  0  0  0
   -2.3072   20.7988   16.6011 H   0  0  0  0  0  0  0  0  0  0  0  0
    0.7541   20.7184   14.1821 H   0  0  0  0  0  0  0  0  0  0  0  0
   -0.2708   19.4390   13.3806 H   0  0  0  0  0  0  0  0  0  0  0  0
   -1.0602   21.6696   12.7928 H   0  0  0  0  0  0  0  0  0  0  0  0
   -2.2655   20.7666   13.8253 H   0  0  0  0  0  0  0  0  0  0  0  0
  1  2  1  0
  2  3  2  0
  3  4  1  0
  4  5  1  0
  5  6  1  0
  6  7  2  0
  6  8  1  0
  8  9  1  0
  8 10  1  0
 10 11  1  0
 10 12  1  0
 12 13  2  0
 13 14  1  0
 14 15  2  0
 15 16  1  0
 16 17  1  0
 16 18  2  0
  4 19  2  0
 19 20  1  0
 20 21  2  0
 21 22  1  0
 22 23  1  0
 23 24  1  0
 24 25  1  0
 25 26  1  0
 26 27  1  0
 21  2  1  0
 27 22  1  0
 18 12  1  0
  1 28  1  0
  1 29  1  0
  1 30  1  0
  3 31  1  0
  5 32  1  0
  9 33  1  0
  9 34  1  0
  9 35  1  0
 10 36  1  6
 11 37  1  0
 11 38  1  0
 11 39  1  0
 13 40  1  0
 14 41  1  0
 15 42  1  0
 17 43  1  0
 18 44  1  0
 19 45  1  0
 20 46  1  0
 23 47  1  0
 23 48  1  0
 24 49  1  0
 24 50  1  0
 26 51  1  0
 26 52  1  0
 27 53  1  0
 27 54  1  0
M  END
>  <vina_affinity>  (1) 
-8.042

$$$$
dec_C05353197
     RDKit          3D

 56 58  0  0  0  0  0  0  0  0999 V2000
   -2.2730   33.2170   11.2110 C   0  0  0  0  0  0  0  0  0  0  0  0
   -1.5900   33.0490   10.0710 C   0  0  0  0  0  0  0  0  0  0  0  0
   -1.7470   31.9380    9.0590 C   0  0  0  0  0  0  0  0  0  0  0  0
   -1.1190   30.5920    9.4140 C   0  0  0  0  0  0  0  0  0  0  0  0
    0.2420   30.4090    9.0620 C   0  0  0  0  0  0  0  0  0  0  0  0
    0.9090   29.2210    9.3290 C   0  0  0  0  0  0  0  0  0  0  0  0
    0.2280   28.1880    9.9530 C   0  0  0  0  0  0  0  0  0  0  0  0
   -1.1190   28.3630   10.3030 C   0  0  0  0  0  0  0  0  0  0  0  0
   -1.7800   27.2100   10.9670 C   0  0  0  0  0  0  0  0  0  0  0  0
   -2.2450   27.3460   12.1540 N   0  0  0  0  0  0  0  0  0  0  0  0
   -2.9150   26.3420   13.0080 N   0  0  0  0  0  0  0  0  0  0  0  0
   -2.4440   25.9020   14.2240 C   0  0  0  0  0  0  0  0  0  0  0  0
   -1.3870   26.2640   14.7320 O   0  0  0  0  0  0  0  0  0  0  0  0
   -3.3410   24.9210   14.8590 C   0  0  0  0  0  0  0  0  0  0  0  0
   -4.6390   25.2090   15.0730 N   0  0  0  0  0  0  0  0  0  0  0  0
   -5.1500   24.1110   15.6540 N   0  0  0  0  0  0  0  0  0  0  0  0
   -4.2240   23.1370   15.8430 C   0  0  0  0  0  0  0  0  0  0  0  0
   -3.0380   23.6120   15.3360 C   0  0  0  0  0  0  0  0  0  0  0  0
   -1.7880   22.7960   15.3280 C   0  0  0  0  0  0  0  0  0  0  0  0
   -2.0860   21.2810   15.5680 C   0  0  1  0  0  0  0  0  0  0  0  0
   -0.7860   20.4140   15.7540 C   0  0  0  0  0  0  0  0  0  0  0  0
   -0.3990   20.3510   17.2480 C   0  0  0  0  0  0  0  0  0  0  0  0
    0.4160   20.9740   14.9720 C   0  0  0  0  0  0  0  0  0  0  0  0
   -1.0340   18.9630   15.2870 C   0  0  0  0  0  0  0  0  0  0  0  0
   -3.1200   21.1160   16.7280 C   0  0  0  0  0  0  0  0  0  0  0  0
   -4.4700   21.7960   16.4220 C   0  0  0  0  0  0  0  0  0  0  0  0
   -1.8610   29.5660   10.0590 C   0  0  0  0  0  0  0  0  0  0  0  0
   -3.0940   29.6890   10.4020 O   0  0  0  0  0  0  0  0  0  0  0  0
   -2.0554   34.0775   11.8608 H   0  0  0  0  0  0  0  0  0  0  0  0
   -3.0514   32.4945   11.4974 H   0  0  0  0  0  0  0  0  0  0  0  0
   -0.8263   33.8078    9.8454 H   0  0  0  0  0  0  0  0  0  0  0  0
   -2.8243   31.7738    8.9090 H   0  0  0  0  0  0  0  0  0  0  0  0
   -1.2055   32.2826    8.1657 H   0  0  0  0  0  0  0  0  0  0  0  0
    0.7827   31.2281    8.5653 H   0  0  0  0  0  0  0  0  0  0  0  0
    1.9658   29.1011    9.0484 H   0  0  0  0  0  0  0  0  0  0  0  0
    0.7393   27.2390   10.1720 H   0  0  0  0  0  0  0  0  0  0  0  0
   -1.8698   26.2465   10.4439 H   0  0  0  0  0  0  0  0  0  0  0  0
   -2.0870   28.3190   12.5270 H   0  0  0  0  0  0  0  0  0  0  0  0
   -3.7430   25.9290   12.5970 H   0  0  0  0  0  0  0  0  0  0  0  0
   -6.1400   24.1020   15.8840 H   0  0  0  0  0  0  0  0  0  0  0  0
   -1.2928   22.9119   14.3527 H   0  0  0  0  0  0  0  0  0  0  0  0
   -1.1407   23.1518   16.1432 H   0  0  0  0  0  0  0  0  0  0  0  0
   -2.5452   20.8763   14.6540 H   0  0  0  0  0  0  0  0  0  0  0  0
   -1.2972   20.4972   17.8659 H   0  0  0  0  0  0  0  0  0  0  0  0
    0.0436   19.3690   17.4710 H   0  0  0  0  0  0  0  0  0  0  0  0
    0.3322   21.1419   17.4710 H   0  0  0  0  0  0  0  0  0  0  0  0
    1.1798   21.3299   15.6791 H   0  0  0  0  0  0  0  0  0  0  0  0
    0.8428   20.1820   14.3391 H   0  0  0  0  0  0  0  0  0  0  0  0
    0.0842   21.8103   14.3391 H   0  0  0  0  0  0  0  0  0  0  0  0
   -1.1457   18.3094   16.1647 H   0  0  0  0  0  0  0  0  0  0  0  0
   -1.9518   18.9244   14.6819 H   0  0  0  0  0  0  0  0  0  0  0  0
   -0.1812   18.6217   14.6819 H   0  0  0  0  0  0  0  0  0  0  0  0
   -3.2958   20.0427   16.8929 H   0  0  0  0  0  0  0  0  0  0  0  0
   -2.6983   21.6006   17.6209 H   0  0  0  0  0  0  0  0  0  0  0  0
   -5.0350   21.1839   15.7036 H   0  0  0  0  0  0  0  0  0  0  0  0
   -5.0500   21.8972   17.3512 H   0  0  0  0  0  0  0  0  0  0  0  0
  1  2  2  0
  2  3  1  0
  3  4  1  0
  4  5  2  0
  5  6  1  0
  6  7  2  0
  7  8  1  0
  8  9  1  0
  9 10  2  0
 10 11  1  0
 11 12  1  0
 12 13  2  0
 12 14  1  0
 14 15  2  0
 15 16  1  0
 16 17  1  0
 17 18  2  0
 18 19  1  0
 19 20  1  0
 20 21  1  0
 21 22  1  0
 21 23  1  0
 21 24  1  0
 20 25  1  0
 25 26  1  0
  8 27  2  0
 27 28  1  0
 27  4  1  0
 18 14  1  0
 26 17  1  0
  1 29  1  0
  1 30  1  0
  2 31  1  0
  3 32  1  0
  3 33  1  0
  5 34  1  0
  6 35  1  0
  7 36  1  0
  9 37  1  0
 10 38  1  0
 11 39  1  0
 16 40  1  0
 19 41  1  0
 19 42  1  0
 20 43  1  6
 22 44  1  0
 22 45  1  0
 22 46  1  0
 23 47  1  0
 23 48  1  0
 23 49  1  0
 24 50  1  0
 24 51  1  0
 24 52  1  0
 25 53  1  0
 25 54  1  0
 26 55  1  0
 26 56  1  0
M  CHG  2  10   1  28  -1
M  END
>  <vina_affinity>  (1) 
-8.740

$$$$
dec_C44713797
     RDKit          3D

 58 60  0  0  0  0  0  0  0  0999 V2000
    3.7690   27.0660    8.5860 C   0  0  0  0  0  0  0  0  0  0  0  0
    2.8820   27.1660    9.8140 C   0  0  0  0  0  0  0  0  0  0  0  0
    2.2370   25.8380   10.1690 C   0  0  0  0  0  0  0  0  0  0  0  0
    2.7640   24.7540    9.9220 O   0  0  0  0  0  0  0  0  0  0  0  0
    1.0040   25.9040   10.7870 N   0  0  0  0  0  0  0  0  0  0  0  0
   -0.0020   26.8310   10.3140 C   0  0  0  0  0  0  0  0  0  0  0  0
   -1.2840   26.4180   11.0380 C   0  0  2  0  0  0  0  0  0  0  0  0
   -2.2740   27.5700   11.1180 C   0  0  0  0  0  0  0  0  0  0  0  0
   -3.2970   27.4960   11.8000 O   0  0  0  0  0  0  0  0  0  0  0  0
   -1.9800   28.6530   10.3270 N   0  0  0  0  0  0  0  0  0  0  0  0
   -2.6460   29.9340   10.5290 C   0  0  2  0  0  0  0  0  0  0  0  0
   -4.0600   29.9120    9.9620 C   0  0  0  0  0  0  0  0  0  0  0  0
   -1.7760   30.9920    9.9100 C   0  0  0  0  0  0  0  0  0  0  0  0
   -1.7760   32.3810   10.2410 C   0  0  0  0  0  0  0  0  0  0  0  0
   -2.6410   33.0990   11.2110 C   0  0  0  0  0  0  0  0  0  0  0  0
   -0.8400   33.0540    9.5660 N   0  0  0  0  0  0  0  0  0  0  0  0
   -0.2980   32.1400    8.7540 N   0  0  0  0  0  0  0  0  0  0  0  0
   -0.7960   30.8780    8.9330 C   0  0  0  0  0  0  0  0  0  0  0  0
   -0.2900   29.7380    8.1320 C   0  0  0  0  0  0  0  0  0  0  0  0
   -0.7460   25.8230   12.3890 C   0  0  0  0  0  0  0  0  0  0  0  0
   -1.7060   24.8140   13.0540 C   0  0  0  0  0  0  0  0  0  0  0  0
   -2.8680   25.4190   13.8360 C   0  0  0  0  0  0  0  0  0  0  0  0
   -2.5080   26.7410   14.4070 N   0  0  0  0  0  0  0  0  0  0  0  0
   -1.0740   26.9380   14.7110 C   0  0  0  0  0  0  0  0  0  0  0  0
   -0.2770   26.9100   13.4090 C   0  0  0  0  0  0  0  0  0  0  0  0
    0.5000   25.0640   11.8550 C   0  0  0  0  0  0  0  0  0  0  0  0
    4.8168   26.9479    8.8992 H   0  0  0  0  0  0  0  0  0  0  0  0
    3.4658   26.1963    7.9845 H   0  0  0  0  0  0  0  0  0  0  0  0
    3.6670   27.9813    7.9845 H   0  0  0  0  0  0  0  0  0  0  0  0
    3.4928   27.5013   10.6652 H   0  0  0  0  0  0  0  0  0  0  0  0
    2.0772   27.8817    9.5903 H   0  0  0  0  0  0  0  0  0  0  0  0
    0.2723   27.8649   10.5707 H   0  0  0  0  0  0  0  0  0  0  0  0
   -0.1141   26.7999    9.2202 H   0  0  0  0  0  0  0  0  0  0  0  0
   -1.9004   25.6634   10.5274 H   0  0  0  0  0  0  0  0  0  0  0  0
   -1.0760   28.7090    9.8770 H   0  0  0  0  0  0  0  0  0  0  0  0
   -2.7708   30.1537   11.5996 H   0  0  0  0  0  0  0  0  0  0  0  0
   -4.7862   29.9007   10.7882 H   0  0  0  0  0  0  0  0  0  0  0  0
   -4.2213   30.8077    9.3442 H   0  0  0  0  0  0  0  0  0  0  0  0
   -4.1934   29.0117    9.3442 H   0  0  0  0  0  0  0  0  0  0  0  0
   -2.3333   32.8436   12.2357 H   0  0  0  0  0  0  0  0  0  0  0  0
   -2.5416   34.1838   11.0579 H   0  0  0  0  0  0  0  0  0  0  0  0
   -3.6889   32.8016   11.0579 H   0  0  0  0  0  0  0  0  0  0  0  0
    0.4200   32.4450    8.1020 H   0  0  0  0  0  0  0  0  0  0  0  0
    0.0625   28.9438    8.8065 H   0  0  0  0  0  0  0  0  0  0  0  0
   -1.0994   29.3477    7.4975 H   0  0  0  0  0  0  0  0  0  0  0  0
    0.5424   30.0765    7.4975 H   0  0  0  0  0  0  0  0  0  0  0  0
   -2.1273   24.1770   12.2624 H   0  0  0  0  0  0  0  0  0  0  0  0
   -1.1008   24.2683   13.7929 H   0  0  0  0  0  0  0  0  0  0  0  0
   -3.7275   25.5431   13.1608 H   0  0  0  0  0  0  0  0  0  0  0  0
   -3.1171   24.7405   14.6652 H   0  0  0  0  0  0  0  0  0  0  0  0
   -2.7780   27.4580   13.6950 H   0  0  0  0  0  0  0  0  0  0  0  0
   -3.0950   26.9570   15.2230 H   0  0  0  0  0  0  0  0  0  0  0  0
   -0.9332   27.9092   15.2079 H   0  0  0  0  0  0  0  0  0  0  0  0
   -0.7234   26.1355   15.3766 H   0  0  0  0  0  0  0  0  0  0  0  0
   -0.3683   27.8952   12.9283 H   0  0  0  0  0  0  0  0  0  0  0  0
    0.7593   26.6600   13.6803 H   0  0  0  0  0  0  0  0  0  0  0  0
    1.2540   24.9477   12.6474 H   0  0  0  0  0  0  0  0  0  0  0  0
    0.2560   24.0485   11.5098 H   0  0  0  0  0  0  0  0  0  0  0  0
  1  2  1  0
  2  3  1  0
  3  4  2  0
  3  5  1  0
  5  6  1  0
  6  7  1  0
  7  8  1  0
  8  9  2  0
  8 10  1  0
 10 11  1  0
 11 12  1  0
 11 13  1  0
 13 14  1  0
 14 15  1  0
 14 16  2  0
 16 17  1  0
 17 18  1  0
 18 19  1  0
  7 20  1  0
 20 21  1  0
 21 22  1  0
 22 23  1  0
 23 24  1  0
 24 25  1  0
 20 26  1  0
 26  5  1  0
 18 13  2  0
 25 20  1  0
  1 27  1  0
  1 28  1  0
  1 29  1  0
  2 30  1  0
  2 31  1  0
  6 32  1  0
  6 33  1  0
  7 34  1  6
 10 35  1  0
 11 36  1  1
 12 37  1  0
 12 38  1  0
 12 39  1  0
 15 40  1  0
 15 41  1  0
 15 42  1  0
 17 43  1  0
 19 44  1  0
 19 45  1  0
 19 46  1  0
 21 47  1  0
 21 48  1  0
 22 49  1  0
 22 50  1  0
 23 51  1  0
 23 52  1  0
 24 53  1  0
 24 54  1  0
 25 55  1  0
 25 56  1  0
 26 57  1  0
 26 58  1  0
M  CHG  1  23   1
M  END
>  <vina_affinity>  (1) 
-7.789

$$$$
dec_C38025650
     RDKit          3D

 36 37  0  0  0  0  0  0  0  0999 V2000
    1.4790   31.7210    7.0880 C   0  0  0  0  0  0  0  0  0  0  0  0
    2.0320   30.4110    7.2120 O   0  0  0  0  0  0  0  0  0  0  0  0
    1.5110   29.6820    8.2350 C   0  0  0  0  0  0  0  0  0  0  0  0
    2.1520   28.9650    8.9910 O   0  0  0  0  0  0  0  0  0  0  0  0
    0.0180   29.8530    8.3090 C   0  0  0  0  0  0  0  0  0  0  0  0
   -0.4490   30.0340    9.7600 C   0  0  1  0  0  0  0  0  0  0  0  0
   -0.7490   31.4970   10.1260 C   0  0  0  0  0  0  0  0  0  0  0  0
   -1.9560   32.0620    9.3810 C   0  0  0  0  0  0  0  0  0  0  0  0
   -3.0260   31.0100    9.0980 C   0  0  0  0  0  0  0  0  0  0  0  0
   -2.9460   29.8210   10.0500 C   0  0  0  0  0  0  0  0  0  0  0  0
   -1.6240   29.1850   10.0640 N   0  0  0  0  0  0  0  0  0  0  0  0
   -1.3950   27.8310   10.3340 C   0  0  0  0  0  0  0  0  0  0  0  0
   -1.1450   27.0450    9.4200 O   0  0  0  0  0  0  0  0  0  0  0  0
   -1.4660   27.3310   11.6940 C   0  0  0  0  0  0  0  0  0  0  0  0
   -0.5440   27.2390   12.7310 C   0  0  0  0  0  0  0  0  0  0  0  0
   -1.1740   26.6190   13.8400 C   0  0  0  0  0  0  0  0  0  0  0  0
   -0.4350   26.3180   15.3360 Cl  0  0  0  0  0  0  0  0  0  0  0  0
   -2.4460   26.3190   13.4430 C   0  0  0  0  0  0  0  0  0  0  0  0
   -3.7560   25.5670   14.2180 Cl  0  0  0  0  0  0  0  0  0  0  0  0
   -2.6170   26.7140   12.1530 N   0  0  0  0  0  0  0  0  0  0  0  0
    1.3019   32.1405    8.0893 H   0  0  0  0  0  0  0  0  0  0  0  0
    2.1819   32.3653    6.5396 H   0  0  0  0  0  0  0  0  0  0  0  0
    0.5270   31.6667    6.5396 H   0  0  0  0  0  0  0  0  0  0  0  0
   -0.2709   30.7399    7.7259 H   0  0  0  0  0  0  0  0  0  0  0  0
   -0.4567   28.9486    7.9006 H   0  0  0  0  0  0  0  0  0  0  0  0
    0.3989   29.7114   10.3821 H   0  0  0  0  0  0  0  0  0  0  0  0
   -0.9454   31.5549   11.2068 H   0  0  0  0  0  0  0  0  0  0  0  0
    0.1271   32.0955    9.8356 H   0  0  0  0  0  0  0  0  0  0  0  0
   -2.4023   32.8612    9.9910 H   0  0  0  0  0  0  0  0  0  0  0  0
   -1.5985   32.4382    8.4111 H   0  0  0  0  0  0  0  0  0  0  0  0
   -4.0161   31.4780    9.2012 H   0  0  0  0  0  0  0  0  0  0  0  0
   -2.8601   30.6321    8.0784 H   0  0  0  0  0  0  0  0  0  0  0  0
   -3.1776   30.1702   11.0670 H   0  0  0  0  0  0  0  0  0  0  0  0
   -3.6686   29.0696    9.6990 H   0  0  0  0  0  0  0  0  0  0  0  0
    0.4985   27.5883   12.6968 H   0  0  0  0  0  0  0  0  0  0  0  0
   -3.4510   26.5800   11.5970 H   0  0  0  0  0  0  0  0  0  0  0  0
  1  2  1  0
  2  3  1  0
  3  4  2  0
  3  5  1  0
  5  6  1  0
  6  7  1  0
  7  8  1  0
  8  9  1  0
  9 10  1  0
 10 11  1  0
 11 12  1  0
 12 13  2  0
 12 14  1  0
 14 15  2  0
 15 16  1  0
 16 17  1  0
 16 18  2  0
 18 19  1  0
 18 20  1  0
 11  6  1  0
 20 14  1  0
  1 21  1  0
  1 22  1  0
  1 23  1  0
  5 24  1  0
  5 25  1  0
  6 26  1  1
  7 27  1  0
  7 28  1  0
  8 29  1  0
  8 30  1  0
  9 31  1  0
  9 32  1  0
 10 33  1  0
 10 34  1  0
 15 35  1  0
 20 36  1  0
M  END
>  <vina_affinity>  (1) 
-7.195

$$$$
dec_C12329420
     RDKit          3D

 54 57  0  0  0  0  0  0  0  0999 V2000
   -4.3890   20.3420   16.4990 C   0  0  0  0  0  0  0  0  0  0  0  0
   -3.9920   21.7400   16.1230 C   0  0  0  0  0  0  0  0  0  0  0  0
   -4.9420   22.7660   16.1090 C   0  0  0  0  0  0  0  0  0  0  0  0
   -4.5840   24.0610   15.7240 C   0  0  0  0  0  0  0  0  0  0  0  0
   -3.2680   24.3500   15.3360 C   0  0  0  0  0  0  0  0  0  0  0  0
   -2.8830   25.7580   14.9440 C   0  0  2  0  0  0  0  0  0  0  0  0
   -3.5190   26.6930   15.8200 O   0  0  0  0  0  0  0  0  0  0  0  0
   -3.2810   26.0500   13.4740 C   0  0  0  0  0  0  0  0  0  0  0  0
   -2.3220   26.9880   12.7270 N   0  0  1  0  0  0  0  0  0  0  0  0
   -0.9580   27.1020   13.3600 C   0  0  0  0  0  0  0  0  0  0  0  0
   -0.2490   28.3280   12.7920 C   0  0  0  0  0  0  0  0  0  0  0  0
   -0.4100   28.4970   11.2570 C   0  0  1  0  0  0  0  0  0  0  0  0
   -0.9470   27.1910   10.6440 C   0  0  0  0  0  0  0  0  0  0  0  0
   -2.2700   26.7340   11.2410 C   0  0  0  0  0  0  0  0  0  0  0  0
   -1.2890   29.7270   10.9740 C   0  0  0  0  0  0  0  0  0  0  0  0
   -1.3670   30.0270    9.4820 C   0  0  1  0  0  0  0  0  0  0  0  0
   -1.9820   31.3020    9.3430 O   0  0  0  0  0  0  0  0  0  0  0  0
   -0.0010   29.9620    8.8640 C   0  0  0  0  0  0  0  0  0  0  0  0
    0.2340   30.5010    7.5890 C   0  0  0  0  0  0  0  0  0  0  0  0
    1.5050   30.4370    7.0160 C   0  0  0  0  0  0  0  0  0  0  0  0
    2.5490   29.8260    7.7050 C   0  0  0  0  0  0  0  0  0  0  0  0
    2.3190   29.2660    8.9610 C   0  0  0  0  0  0  0  0  0  0  0  0
    1.0460   29.3180    9.5310 C   0  0  0  0  0  0  0  0  0  0  0  0
    0.9220   28.7190   10.7550 O   0  0  0  0  0  0  0  0  0  0  0  0
   -2.3220   23.3130   15.3340 C   0  0  0  0  0  0  0  0  0  0  0  0
   -2.6830   22.0200   15.7190 C   0  0  0  0  0  0  0  0  0  0  0  0
   -4.4150   20.2504   17.5949 H   0  0  0  0  0  0  0  0  0  0  0  0
   -5.3854   20.1209   16.0888 H   0  0  0  0  0  0  0  0  0  0  0  0
   -3.6575   19.6302   16.0888 H   0  0  0  0  0  0  0  0  0  0  0  0
   -5.9800   22.5520   16.4035 H   0  0  0  0  0  0  0  0  0  0  0  0
   -5.3405   24.8596   15.7254 H   0  0  0  0  0  0  0  0  0  0  0  0
   -1.7912   25.8603   15.0310 H   0  0  0  0  0  0  0  0  0  0  0  0
   -3.0190   26.6920   16.6610 H   0  0  0  0  0  0  0  0  0  0  0  0
   -3.3173   25.0936   12.9318 H   0  0  0  0  0  0  0  0  0  0  0  0
   -4.2537   26.5624   13.5100 H   0  0  0  0  0  0  0  0  0  0  0  0
   -2.7580   27.9110   12.8540 H   0  0  0  0  0  0  0  0  0  0  0  0
   -1.0646   27.2092   14.4496 H   0  0  0  0  0  0  0  0  0  0  0  0
   -0.3701   26.1981   13.1426 H   0  0  0  0  0  0  0  0  0  0  0  0
   -0.6588   29.2229   13.2832 H   0  0  0  0  0  0  0  0  0  0  0  0
    0.8252   28.1922   12.9859 H   0  0  0  0  0  0  0  0  0  0  0  0
   -1.0885   27.3466    9.5643 H   0  0  0  0  0  0  0  0  0  0  0  0
   -0.2078   26.4059   10.8615 H   0  0  0  0  0  0  0  0  0  0  0  0
   -3.0901   27.2832   10.7554 H   0  0  0  0  0  0  0  0  0  0  0  0
   -2.3699   25.6517   11.0718 H   0  0  0  0  0  0  0  0  0  0  0  0
   -2.3036   29.5361   11.3536 H   0  0  0  0  0  0  0  0  0  0  0  0
   -0.8392   30.5955   11.4774 H   0  0  0  0  0  0  0  0  0  0  0  0
   -1.9701   29.2789    8.9467 H   0  0  0  0  0  0  0  0  0  0  0  0
   -2.9340   31.2030    9.5230 H   0  0  0  0  0  0  0  0  0  0  0  0
   -0.5900   30.9774    7.0375 H   0  0  0  0  0  0  0  0  0  0  0  0
    1.6818   30.8693    6.0201 H   0  0  0  0  0  0  0  0  0  0  0  0
    3.5538   29.7851    7.2592 H   0  0  0  0  0  0  0  0  0  0  0  0
    3.1436   28.7816    9.5045 H   0  0  0  0  0  0  0  0  0  0  0  0
   -1.2865   23.5207   15.0263 H   0  0  0  0  0  0  0  0  0  0  0  0
   -1.9322   21.2162   15.7043 H   0  0  0  0  0  0  0  0  0  0  0  0
  1  2  1  0
  2  3  2  0
  3  4  1  0
  4  5  2  0
  5  6  1  0
  6  7  1  0
  6  8  1  0
  8  9  1  0
  9 10  1  0
 10 11  1  0
 11 12  1  0
 12 13  1  0
 13 14  1  0
 12 15  1  0
 15 16  1  0
 16 17  1  0
 16 18  1  0
 18 19  2  0
 19 20  1  0
 20 21  2  0
 21 22  1  0
 22 23  2  0
 23 24  1  0
  5 25  1  0
 25 26  2  0
 26  2  1  0
 14  9  1  0
 23 18  1  0
 12 24  1  6
  1 27  1  0
  1 28  1  0
  1 29  1  0
  3 30  1  0
  4 31  1  0
  6 32  1  6
  7 33  1  0
  8 34  1  0
  8 35  1  0
  9 36  1  6
 10 37  1  0
 10 38  1  0
 11 39  1  0
 11 40  1  0
 13 41  1  0
 13 42  1  0
 14 43  1  0
 14 44  1  0
 15 45  1  0
 15 46  1  0
 16 47  1  6
 17 48  1  0
 19 49  1  0
 20 50  1  0
 21 51  1  0
 22 52  1  0
 25 53  1  0
 26 54  1  0
M  CHG  1   9   1
M  END
>  <vina_affinity>  (1) 
-8.774

$$$$
dec_C61938114
     RDKit          3D

 39 40  0  0  0  0  0  0  0  0999 V2000
    1.3540   29.6940    8.4260 N   0  0  0  0  0  0  0  0  0  0  0  0
    0.6240   30.8600    8.4770 C   0  0  0  0  0  0  0  0  0  0  0  0
    1.0520   31.8030    7.6770 N   0  0  0  0  0  0  0  0  0  0  0  0
    0.3240   32.9840    7.7330 O   0  0  0  0  0  0  0  0  0  0  0  0
   -0.5800   30.8950    9.4550 C   0  0  0  0  0  0  0  0  0  0  0  0
   -0.3890   29.8290   10.5700 C   0  0  0  0  0  0  0  0  0  0  0  0
    0.3790   30.0660   11.5120 O   0  0  0  0  0  0  0  0  0  0  0  0
   -1.0850   28.6210   10.5550 N   0  0  0  0  0  0  0  0  0  0  0  0
   -0.7900   27.4640    9.7130 C   0  0  0  0  0  0  0  0  0  0  0  0
    0.1600   26.4630   10.3680 C   0  0  0  0  0  0  0  0  0  0  0  0
   -0.4560   25.6390   11.5060 C   0  0  0  0  0  0  0  0  0  0  0  0
   -1.8360   25.9270   11.6660 O   0  0  0  0  0  0  0  0  0  0  0  0
   -2.1410   27.1400   12.3640 C   0  0  0  0  0  0  0  0  0  0  0  0
   -2.1370   28.4590   11.5710 C   0  0  0  0  0  0  0  0  0  0  0  0
   -1.8260   30.5240    8.5850 C   0  0  0  0  0  0  0  0  0  0  0  0
   -3.0590   31.0190    9.3410 C   0  0  0  0  0  0  0  0  0  0  0  0
   -2.5400   31.9750   10.4030 C   0  0  0  0  0  0  0  0  0  0  0  0
   -1.0850   32.2310   10.0250 C   0  0  0  0  0  0  0  0  0  0  0  0
    2.2620   29.8020    7.9870 H   0  0  0  0  0  0  0  0  0  0  0  0
    1.3500   29.0900    9.2420 H   0  0  0  0  0  0  0  0  0  0  0  0
    0.1440   33.0730    8.6880 H   0  0  0  0  0  0  0  0  0  0  0  0
   -1.7349   26.9495    9.4841 H   0  0  0  0  0  0  0  0  0  0  0  0
   -0.2913   27.8402    8.8076 H   0  0  0  0  0  0  0  0  0  0  0  0
    0.5105   25.7663    9.5923 H   0  0  0  0  0  0  0  0  0  0  0  0
    0.9701   27.0552   10.8187 H   0  0  0  0  0  0  0  0  0  0  0  0
   -0.3378   24.5694   11.2779 H   0  0  0  0  0  0  0  0  0  0  0  0
    0.0623   25.8986   12.4409 H   0  0  0  0  0  0  0  0  0  0  0  0
   -3.1456   27.0231   12.7965 H   0  0  0  0  0  0  0  0  0  0  0  0
   -1.3169   27.2535   13.0837 H   0  0  0  0  0  0  0  0  0  0  0  0
   -3.1078   28.5430   11.0607 H   0  0  0  0  0  0  0  0  0  0  0  0
   -1.9382   29.2421   12.3175 H   0  0  0  0  0  0  0  0  0  0  0  0
   -1.7617   31.0157    7.6031 H   0  0  0  0  0  0  0  0  0  0  0  0
   -1.8781   29.4385    8.4148 H   0  0  0  0  0  0  0  0  0  0  0  0
   -3.7431   31.5421    8.6566 H   0  0  0  0  0  0  0  0  0  0  0  0
   -3.6208   30.1854    9.7876 H   0  0  0  0  0  0  0  0  0  0  0  0
   -3.1134   32.9137   10.3919 H   0  0  0  0  0  0  0  0  0  0  0  0
   -2.6369   31.5592   11.4167 H   0  0  0  0  0  0  0  0  0  0  0  0
   -1.0166   33.0251    9.2669 H   0  0  0  0  0  0  0  0  0  0  0  0
   -0.4873   32.5647   10.8861 H   0  0  0  0  0  0  0  0  0  0  0  0
  1  2  1  0
  2  3  2  0
  3  4  1  0
  2  5  1  0
  5  6  1  0
  6  7  2  0
  6  8  1  0
  8  9  1  0
  9 10  1  0
 10 11  1  0
 11 12  1  0
 12 13  1  0
 13 14  1  0
  5 15  1  0
 15 16  1  0
 16 17  1  0
 17 18  1  0
 18  5  1  0
 14  8  1  0
  1 19  1  0
  1 20  1  0
  4 21  1  0
  9 22  1  0
  9 23  1  0
 10 24  1  0
 10 25  1  0
 11 26  1  0
 11 27  1  0
 13 28  1  0
 13 29  1  0
 14 30  1  0
 14 31  1  0
 15 32  1  0
 15 33  1  0
 16 34  1  0
 16 35  1  0
 17 36  1  0
 17 37  1  0
 18 38  1  0
 18 39  1  0
M  END
>  <vina_affinity>  (1) 
-5.030

$$$$
dec_C32116356
     RDKit          3D

 50 53  0  0  0  0  0  0  0  0999 V2000
   -7.4130   21.0680   15.8440 C   0  0  0  0  0  0  0  0  0  0  0  0
   -6.0330   20.9500   16.4180 C   0  0  0  0  0  0  0  0  0  0  0  0
   -5.2740   19.7910   16.2160 C   0  0  0  0  0  0  0  0  0  0  0  0
   -3.9980   19.6650   16.7780 C   0  0  0  0  0  0  0  0  0  0  0  0
   -3.4700   20.6950   17.5570 C   0  0  0  0  0  0  0  0  0  0  0  0
   -2.2440   20.7030   18.1610 O   0  0  0  0  0  0  0  0  0  0  0  0
   -1.1290   20.3300   17.3700 C   0  0  0  0  0  0  0  0  0  0  0  0
   -0.7670   21.4410   16.3830 C   0  0  0  0  0  0  0  0  0  0  0  0
   -0.3960   22.5680   16.7060 O   0  0  0  0  0  0  0  0  0  0  0  0
   -0.8960   21.0440   15.0520 N   0  0  0  0  0  0  0  0  0  0  0  0
   -0.6770   21.7750   13.8900 C   0  0  0  0  0  0  0  0  0  0  0  0
   -0.9100   20.9320   12.4680 S   0  0  0  0  0  0  0  0  0  0  0  0
   -0.2910   23.0770   14.1000 N   0  0  0  0  0  0  0  0  0  0  0  0
   -0.0020   24.1650   13.2450 C   0  0  0  0  0  0  0  0  0  0  0  0
    1.0450   23.9430   12.3090 C   0  0  0  0  0  0  0  0  0  0  0  0
    1.4540   24.9260   11.4030 C   0  0  0  0  0  0  0  0  0  0  0  0
    0.7890   26.1230   11.4580 C   0  0  0  0  0  0  0  0  0  0  0  0
   -0.2480   26.3650   12.3570 C   0  0  0  0  0  0  0  0  0  0  0  0
   -0.6440   25.4090   13.2700 C   0  0  0  0  0  0  0  0  0  0  0  0
   -0.6680   27.6900   12.2120 N   0  0  0  0  0  0  0  0  0  0  0  0
    0.0180   28.1830   11.1070 C   0  0  0  0  0  0  0  0  0  0  0  0
   -0.1630   29.3540   10.4520 C   0  0  0  0  0  0  0  0  0  0  0  0
   -1.1470   30.3270   10.9160 C   0  0  0  0  0  0  0  0  0  0  0  0
   -1.3520   31.4740   10.2550 C   0  0  0  0  0  0  0  0  0  0  0  0
   -0.5800   31.8030    9.0280 C   0  0  0  0  0  0  0  0  0  0  0  0
   -0.8130   32.8510    8.4360 O   0  0  0  0  0  0  0  0  0  0  0  0
    0.4600   30.8190    8.5860 C   0  0  0  0  0  0  0  0  0  0  0  0
    1.4800   31.2250    7.0750 Br  0  0  0  0  0  0  0  0  0  0  0  0
    0.6380   29.6800    9.2740 C   0  0  0  0  0  0  0  0  0  0  0  0
    0.9850   27.2390   10.6720 O   0  0  0  0  0  0  0  0  0  0  0  0
   -4.2320   21.8450   17.7700 C   0  0  0  0  0  0  0  0  0  0  0  0
   -5.5050   21.9730   17.2120 C   0  0  0  0  0  0  0  0  0  0  0  0
   -8.1461   21.1307   16.6617 H   0  0  0  0  0  0  0  0  0  0  0  0
   -7.4762   21.9748   15.2246 H   0  0  0  0  0  0  0  0  0  0  0  0
   -7.6292   20.1851   15.2246 H   0  0  0  0  0  0  0  0  0  0  0  0
   -5.6847   18.9706   15.6092 H   0  0  0  0  0  0  0  0  0  0  0  0
   -3.4101   18.7515   16.6049 H   0  0  0  0  0  0  0  0  0  0  0  0
   -0.2685   20.1375   18.0277 H   0  0  0  0  0  0  0  0  0  0  0  0
   -1.3871   19.4241   16.8019 H   0  0  0  0  0  0  0  0  0  0  0  0
   -1.1860   20.0930   14.8660 H   0  0  0  0  0  0  0  0  0  0  0  0
   -0.1730   23.2950   15.0920 H   0  0  0  0  0  0  0  0  0  0  0  0
    1.5498   22.9657   12.2974 H   0  0  0  0  0  0  0  0  0  0  0  0
    2.2670   24.7480   10.6837 H   0  0  0  0  0  0  0  0  0  0  0  0
   -1.4421   25.6185   13.9974 H   0  0  0  0  0  0  0  0  0  0  0  0
   -1.6570   27.8850   12.2830 H   0  0  0  0  0  0  0  0  0  0  0  0
   -1.7303   30.1148   11.8241 H   0  0  0  0  0  0  0  0  0  0  0  0
   -2.1047   32.1848   10.6267 H   0  0  0  0  0  0  0  0  0  0  0  0
    1.4101   28.9708    8.9410 H   0  0  0  0  0  0  0  0  0  0  0  0
   -3.8242   22.6605   18.3853 H   0  0  0  0  0  0  0  0  0  0  0  0
   -6.0954   22.8824   17.3976 H   0  0  0  0  0  0  0  0  0  0  0  0
  1  2  1  0
  2  3  2  0
  3  4  1  0
  4  5  2  0
  5  6  1  0
  6  7  1  0
  7  8  1  0
  8  9  2  0
  8 10  1  0
 10 11  1  0
 11 12  2  0
 11 13  1  0
 13 14  1  0
 14 15  2  0
 15 16  1  0
 16 17  2  0
 17 18  1  0
 18 19  2  0
 18 20  1  0
 20 21  1  0
 21 22  2  0
 22 23  1  0
 23 24  2  0
 24 25  1  0
 25 26  2  0
 25 27  1  0
 27 28  1  0
 27 29  2  0
 21 30  1  0
  5 31  1  0
 31 32  2  0
 32  2  1  0
 19 14  1  0
 29 22  1  0
 30 17  1  0
  1 33  1  0
  1 34  1  0
  1 35  1  0
  3 36  1  0
  4 37  1  0
  7 38  1  0
  7 39  1  0
 10 40  1  0
 13 41  1  0
 15 42  1  0
 16 43  1  0
 19 44  1  0
 20 45  1  0
 23 46  1  0
 24 47  1  0
 29 48  1  0
 31 49  1  0
 32 50  1  0
M  END
>  <vina_affinity>  (1) 
-9.603

$$$$
dec_C09953915
     RDKit          3D

 34 35  0  0  0  0  0  0  0  0999 V2000
   -3.7510   26.6940   16.5780 C   0  0  0  0  0  0  0  0  0  0  0  0
   -3.1020   25.8500   15.4840 C   0  0  0  0  0  0  0  0  0  0  0  0
   -4.0740   24.7970   14.9640 C   0  0  0  0  0  0  0  0  0  0  0  0
   -2.6470   26.6940   14.3880 N   0  0  0  0  0  0  0  0  0  0  0  0
   -1.3040   26.8920   14.1330 C   0  0  0  0  0  0  0  0  0  0  0  0
   -0.4030   26.3190   14.7440 O   0  0  0  0  0  0  0  0  0  0  0  0
   -1.0170   27.9010   13.0170 C   0  0  0  0  0  0  0  0  0  0  0  0
    0.0940   27.4290   12.2040 N   0  0  0  0  0  0  0  0  0  0  0  0
    0.5550   28.0850   11.0960 C   0  0  0  0  0  0  0  0  0  0  0  0
    1.8210   27.5910   10.4610 C   0  0  0  0  0  0  0  0  0  0  0  0
    2.2880   28.2200    9.3760 C   0  0  0  0  0  0  0  0  0  0  0  0
    1.5740   29.3210    8.8690 C   0  0  0  0  0  0  0  0  0  0  0  0
    1.7770   30.1220    7.8480 N   0  0  0  0  0  0  0  0  0  0  0  0
    0.7480   31.0350    7.8240 N   0  0  0  0  0  0  0  0  0  0  0  0
   -0.0600   30.7660    8.8380 C   0  0  0  0  0  0  0  0  0  0  0  0
   -1.2950   31.4430    9.2490 C   0  0  0  0  0  0  0  0  0  0  0  0
   -1.4790   32.6300    8.6080 F   0  0  0  0  0  0  0  0  0  0  0  0
   -2.4060   30.7020    8.9930 F   0  0  0  0  0  0  0  0  0  0  0  0
   -1.3240   31.7130   10.5830 F   0  0  0  0  0  0  0  0  0  0  0  0
    0.4220   29.6890    9.5290 N   0  0  0  0  0  0  0  0  0  0  0  0
   -0.1200   29.1070   10.6360 N   0  0  0  0  0  0  0  0  0  0  0  0
   -3.4538   26.3075   17.5641 H   0  0  0  0  0  0  0  0  0  0  0  0
   -3.4214   27.7388   16.4791 H   0  0  0  0  0  0  0  0  0  0  0  0
   -4.8454   26.6438   16.4791 H   0  0  0  0  0  0  0  0  0  0  0  0
   -2.2322   25.3379   15.9212 H   0  0  0  0  0  0  0  0  0  0  0  0
   -4.5477   24.2838   15.8138 H   0  0  0  0  0  0  0  0  0  0  0  0
   -4.8478   25.2829   14.3515 H   0  0  0  0  0  0  0  0  0  0  0  0
   -3.5279   24.0645   14.3515 H   0  0  0  0  0  0  0  0  0  0  0  0
   -3.3150   27.3310   13.9720 H   0  0  0  0  0  0  0  0  0  0  0  0
   -1.9109   28.0123   12.3857 H   0  0  0  0  0  0  0  0  0  0  0  0
   -0.7563   28.8726   13.4620 H   0  0  0  0  0  0  0  0  0  0  0  0
    0.6750   26.7350   12.6730 H   0  0  0  0  0  0  0  0  0  0  0  0
    2.3565   26.7263   10.8801 H   0  0  0  0  0  0  0  0  0  0  0  0
    3.2145   27.8818    8.8889 H   0  0  0  0  0  0  0  0  0  0  0  0
  1  2  1  0
  2  3  1  0
  2  4  1  0
  4  5  1  0
  5  6  2  0
  5  7  1  0
  7  8  1  0
  8  9  1  0
  9 10  1  0
 10 11  2  0
 11 12  1  0
 12 13  2  0
 13 14  1  0
 14 15  2  0
 15 16  1  0
 16 17  1  0
 16 18  1  0
 16 19  1  0
 15 20  1  0
 20 21  1  0
 21  9  2  0
 20 12  1  0
  1 22  1  0
  1 23  1  0
  1 24  1  0
  2 25  1  0
  3 26  1  0
  3 27  1  0
  3 28  1  0
  4 29  1  0
  7 30  1  0
  7 31  1  0
  8 32  1  0
 10 33  1  0
 11 34  1  0
M  END
>  <vina_affinity>  (1) 
-7.623

$$$$
dec_C39667515
     RDKit          3D

 65 68  0  0  0  0  0  0  0  0999 V2000
   -0.4230   18.8260   15.6530 C   0  0  0  0  0  0  0  0  0  0  0  0
   -0.3830   20.2940   15.3140 C   0  0  0  0  0  0  0  0  0  0  0  0
   -0.7970   21.2120   16.2920 C   0  0  0  0  0  0  0  0  0  0  0  0
   -0.7710   22.5790   16.0430 C   0  0  0  0  0  0  0  0  0  0  0  0
   -0.3240   23.0500   14.8140 C   0  0  0  0  0  0  0  0  0  0  0  0
    0.1010   22.1600   13.8120 C   0  0  0  0  0  0  0  0  0  0  0  0
    0.5510   22.7450   12.4960 C   0  0  0  0  0  0  0  0  0  0  0  0
    0.4550   24.1900   12.5330 N   0  0  0  0  0  0  0  0  0  0  0  0
   -0.4150   24.8670   11.7200 C   0  0  0  0  0  0  0  0  0  0  0  0
   -1.1480   24.3150   10.9040 O   0  0  0  0  0  0  0  0  0  0  0  0
   -0.4360   26.3690   11.9370 C   0  0  1  0  0  0  0  0  0  0  0  0
   -0.9110   27.1320   10.6980 C   0  0  0  0  0  0  0  0  0  0  0  0
   -1.4560   28.3770   11.2280 N   0  0  0  0  0  0  0  0  0  0  0  0
   -2.1750   29.3350   10.5340 C   0  0  0  0  0  0  0  0  0  0  0  0
   -3.4010   29.3150   10.4590 O   0  0  0  0  0  0  0  0  0  0  0  0
   -1.4390   30.4040    9.8230 C   0  0  0  0  0  0  0  0  0  0  0  0
   -1.8150   31.7350   10.0360 C   0  0  0  0  0  0  0  0  0  0  0  0
   -1.1210   32.7590    9.3920 C   0  0  0  0  0  0  0  0  0  0  0  0
   -0.0530   32.4500    8.5520 C   0  0  0  0  0  0  0  0  0  0  0  0
    0.5960   33.4490    7.9410 F   0  0  0  0  0  0  0  0  0  0  0  0
    0.3510   31.1320    8.3470 C   0  0  0  0  0  0  0  0  0  0  0  0
    1.5190   30.8530    7.4490 C   0  0  0  0  0  0  0  0  0  0  0  0
    1.2910   31.2170    6.1570 F   0  0  0  0  0  0  0  0  0  0  0  0
    2.6560   31.4860    7.8390 F   0  0  0  0  0  0  0  0  0  0  0  0
    1.8310   29.5250    7.4000 F   0  0  0  0  0  0  0  0  0  0  0  0
   -0.3450   30.1010    9.0020 C   0  0  0  0  0  0  0  0  0  0  0  0
   -1.4370   28.3820   12.6780 C   0  0  0  0  0  0  0  0  0  0  0  0
   -1.3830   26.8870   13.0660 C   0  0  0  0  0  0  0  0  0  0  0  0
   -0.7700   26.6930   14.4650 C   0  0  0  0  0  0  0  0  0  0  0  0
   -1.7600   27.0120   15.5780 C   0  0  0  0  0  0  0  0  0  0  0  0
   -3.0030   26.1930   15.4510 N   0  0  0  0  0  0  0  0  0  0  0  0
   -3.1720   25.4140   14.1860 C   0  0  0  0  0  0  0  0  0  0  0  0
   -2.8310   26.3030   12.9980 C   0  0  0  0  0  0  0  0  0  0  0  0
    0.0450   20.7630   14.0480 C   0  0  0  0  0  0  0  0  0  0  0  0
    0.4950   19.7910   12.9840 C   0  0  0  0  0  0  0  0  0  0  0  0
   -0.4264   18.7020   16.7460 H   0  0  0  0  0  0  0  0  0  0  0  0
   -1.3337   18.3767   15.2302 H   0  0  0  0  0  0  0  0  0  0  0  0
    0.4619   18.3278   15.2302 H   0  0  0  0  0  0  0  0  0  0  0  0
   -1.1465   20.8446   17.2681 H   0  0  0  0  0  0  0  0  0  0  0  0
   -1.1034   23.2867   16.8168 H   0  0  0  0  0  0  0  0  0  0  0  0
   -0.3025   24.1331   14.6229 H   0  0  0  0  0  0  0  0  0  0  0  0
    1.5951   22.4548   12.3072 H   0  0  0  0  0  0  0  0  0  0  0  0
   -0.0958   22.3623   11.6927 H   0  0  0  0  0  0  0  0  0  0  0  0
    0.8630   24.6440   13.3410 H   0  0  0  0  0  0  0  0  0  0  0  0
    0.6148   26.5547   12.2043 H   0  0  0  0  0  0  0  0  0  0  0  0
   -0.0700   27.3331   10.0181 H   0  0  0  0  0  0  0  0  0  0  0  0
   -1.6503   26.5650   10.1132 H   0  0  0  0  0  0  0  0  0  0  0  0
   -2.6532   31.9722   10.7076 H   0  0  0  0  0  0  0  0  0  0  0  0
   -1.4158   33.8074    9.5467 H   0  0  0  0  0  0  0  0  0  0  0  0
   -0.0303   29.0553    8.8697 H   0  0  0  0  0  0  0  0  0  0  0  0
   -0.5507   28.9141   13.0540 H   0  0  0  0  0  0  0  0  0  0  0  0
   -2.3098   28.8957   13.1073 H   0  0  0  0  0  0  0  0  0  0  0  0
   -0.4469   25.6466   14.5679 H   0  0  0  0  0  0  0  0  0  0  0  0
    0.0788   27.3861   14.5601 H   0  0  0  0  0  0  0  0  0  0  0  0
   -1.2884   26.7991   16.5487 H   0  0  0  0  0  0  0  0  0  0  0  0
   -2.0354   28.0743   15.5033 H   0  0  0  0  0  0  0  0  0  0  0  0
   -3.8220   26.8050   15.5760 H   0  0  0  0  0  0  0  0  0  0  0  0
   -3.0470   25.5250   16.2340 H   0  0  0  0  0  0  0  0  0  0  0  0
   -2.4999   24.5433   14.1982 H   0  0  0  0  0  0  0  0  0  0  0  0
   -4.2134   25.0698   14.1016 H   0  0  0  0  0  0  0  0  0  0  0  0
   -2.9261   25.7088   12.0772 H   0  0  0  0  0  0  0  0  0  0  0  0
   -3.5289   27.1531   13.0130 H   0  0  0  0  0  0  0  0  0  0  0  0
    0.9114   18.8917   13.4614 H   0  0  0  0  0  0  0  0  0  0  0  0
   -0.3643   19.5092   12.3577 H   0  0  0  0  0  0  0  0  0  0  0  0
    1.2658   20.2639   12.3577 H   0  0  0  0  0  0  0  0  0  0  0  0
  1  2  1  0
  2  3  2  0
  3  4  1  0
  4  5  2  0
  5  6  1  0
  6  7  1  0
  7  8  1  0
  8  9  1  0
  9 10  2  0
  9 11  1  0
 11 12  1  0
 12 13  1  0
 13 14  1  0
 14 15  2  0
 14 16  1  0
 16 17  2  0
 17 18  1  0
 18 19  2  0
 19 20  1  0
 19 21  1  0
 21 22  1  0
 22 23  1  0
 22 24  1  0
 22 25  1  0
 21 26  2  0
 13 27  1  0
 27 28  1  0
 28 29  1  0
 29 30  1  0
 30 31  1  0
 31 32  1  0
 32 33  1  0
  6 34  2  0
 34 35  1  0
 34  2  1  0
 28 11  1  0
 26 16  1  0
 33 28  1  0
  1 36  1  0
  1 37  1  0
  1 38  1  0
  3 39  1  0
  4 40  1  0
  5 41  1  0
  7 42  1  0
  7 43  1  0
  8 44  1  0
 11 45  1  1
 12 46  1  0
 12 47  1  0
 17 48  1  0
 18 49  1  0
 26 50  1  0
 27 51  1  0
 27 52  1  0
 29 53  1  0
 29 54  1  0
 30 55  1  0
 30 56  1  0
 31 57  1  0
 31 58  1  0
 32 59  1  0
 32 60  1  0
 33 61  1  0
 33 62  1  0
 35 63  1  0
 35 64  1  0
 35 65  1  0
M  CHG  1  31   1
M  END
>  <vina_affinity>  (1) 
-9.926

$$$$
dec_C36586595
     RDKit          3D

 60 61  0  0  0  0  0  0  0  0999 V2000
    2.3960   16.4330   17.6000 C   0  0  0  0  0  0  0  0  0  0  0  0
    1.9430   17.8960   17.7670 C   0  0  0  0  0  0  0  0  0  0  0  0
    3.1730   18.8000   17.5870 C   0  0  0  0  0  0  0  0  0  0  0  0
    1.3590   18.0680   19.1770 C   0  0  0  0  0  0  0  0  0  0  0  0
    0.9290   18.1730   16.7420 N   0  0  0  0  0  0  0  0  0  0  0  0
    0.1780   19.3260   16.6440 C   0  0  0  0  0  0  0  0  0  0  0  0
    0.3550   20.2930   17.3870 O   0  0  0  0  0  0  0  0  0  0  0  0
   -0.8280   19.4060   15.4440 C   0  0  1  0  0  0  0  0  0  0  0  0
   -2.1840   19.9650   15.8830 C   0  0  0  0  0  0  0  0  0  0  0  0
   -2.3880   20.5340   17.1510 C   0  0  0  0  0  0  0  0  0  0  0  0
   -3.6320   21.0680   17.5020 C   0  0  0  0  0  0  0  0  0  0  0  0
   -4.6880   21.0440   16.5930 C   0  0  0  0  0  0  0  0  0  0  0  0
   -4.4920   20.4840   15.3360 C   0  0  0  0  0  0  0  0  0  0  0  0
   -5.4900   20.4580   14.4070 O   0  0  0  0  0  0  0  0  0  0  0  0
   -3.2610   19.9430   14.9800 C   0  0  0  0  0  0  0  0  0  0  0  0
   -0.3440   19.9820   14.1490 N   0  0  0  0  0  0  0  0  0  0  0  0
    0.4440   21.1340   14.2450 C   0  0  0  0  0  0  0  0  0  0  0  0
    1.6350   21.0680   14.5630 O   0  0  0  0  0  0  0  0  0  0  0  0
   -0.1660   22.4760   14.0240 C   0  0  0  0  0  0  0  0  0  0  0  0
   -0.5280   22.9680   12.7610 C   0  0  0  0  0  0  0  0  0  0  0  0
   -0.2680   22.2600   11.6190 O   0  0  0  0  0  0  0  0  0  0  0  0
   -1.1450   24.2170   12.6300 C   0  0  0  0  0  0  0  0  0  0  0  0
   -1.3960   24.9970   13.7580 C   0  0  0  0  0  0  0  0  0  0  0  0
   -1.0150   24.5390   15.0170 C   0  0  0  0  0  0  0  0  0  0  0  0
   -0.3950   23.2960   15.1450 C   0  0  0  0  0  0  0  0  0  0  0  0
   -0.0380   22.9430   16.4230 O   0  0  0  0  0  0  0  0  0  0  0  0
   -0.0670   19.0470   13.0030 C   0  0  0  0  0  0  0  0  0  0  0  0
    1.2480   19.3560   12.2660 C   0  0  0  0  0  0  0  0  0  0  0  0
   -1.2160   19.1080   11.9610 C   0  0  0  0  0  0  0  0  0  0  0  0
   -0.0200   17.5790   13.4920 C   0  0  0  0  0  0  0  0  0  0  0  0
    2.5371   15.9774   18.5912 H   0  0  0  0  0  0  0  0  0  0  0  0
    1.6292   15.8728   17.0448 H   0  0  0  0  0  0  0  0  0  0  0  0
    3.3451   16.4042   17.0448 H   0  0  0  0  0  0  0  0  0  0  0  0
    3.5643   19.0876   18.5740 H   0  0  0  0  0  0  0  0  0  0  0  0
    3.9494   18.2560   17.0291 H   0  0  0  0  0  0  0  0  0  0  0  0
    2.8856   19.7034   17.0291 H   0  0  0  0  0  0  0  0  0  0  0  0
    2.1329   17.8401   19.9247 H   0  0  0  0  0  0  0  0  0  0  0  0
    1.0166   19.1051   19.3081 H   0  0  0  0  0  0  0  0  0  0  0  0
    0.5092   17.3820   19.3081 H   0  0  0  0  0  0  0  0  0  0  0  0
    0.6190   17.3770   16.1860 H   0  0  0  0  0  0  0  0  0  0  0  0
   -0.9475   18.3498   15.1607 H   0  0  0  0  0  0  0  0  0  0  0  0
   -1.5606   20.5598   17.8754 H   0  0  0  0  0  0  0  0  0  0  0  0
   -3.7774   21.5086   18.4993 H   0  0  0  0  0  0  0  0  0  0  0  0
   -5.6669   21.4640   16.8675 H   0  0  0  0  0  0  0  0  0  0  0  0
   -6.1140   21.1740   14.6110 H   0  0  0  0  0  0  0  0  0  0  0  0
   -3.1293   19.4945   13.9842 H   0  0  0  0  0  0  0  0  0  0  0  0
   -0.1630   22.8890   10.8850 H   0  0  0  0  0  0  0  0  0  0  0  0
   -1.4329   24.5846   11.6340 H   0  0  0  0  0  0  0  0  0  0  0  0
   -1.8940   25.9723   13.6539 H   0  0  0  0  0  0  0  0  0  0  0  0
   -1.2026   25.1560   15.9082 H   0  0  0  0  0  0  0  0  0  0  0  0
    0.4310   22.0810   16.3710 H   0  0  0  0  0  0  0  0  0  0  0  0
    2.0449   19.5433   13.0008 H   0  0  0  0  0  0  0  0  0  0  0  0
    1.5250   18.4985   11.6352 H   0  0  0  0  0  0  0  0  0  0  0  0
    1.1141   20.2471   11.6352 H   0  0  0  0  0  0  0  0  0  0  0  0
   -2.1826   19.1593   12.4836 H   0  0  0  0  0  0  0  0  0  0  0  0
   -1.0922   20.0008   11.3305 H   0  0  0  0  0  0  0  0  0  0  0  0
   -1.1874   18.2071   11.3305 H   0  0  0  0  0  0  0  0  0  0  0  0
   -0.0194   17.5587   14.5918 H   0  0  0  0  0  0  0  0  0  0  0  0
   -0.9013   17.0388   13.1158 H   0  0  0  0  0  0  0  0  0  0  0  0
    0.8941   17.0963   13.1158 H   0  0  0  0  0  0  0  0  0  0  0  0
  1  2  1  0
  2  3  1  0
  2  4  1  0
  2  5  1  0
  5  6  1  0
  6  7  2  0
  6  8  1  0
  8  9  1  0
  9 10  2  0
 10 11  1  0
 11 12  2  0
 12 13  1  0
 13 14  1  0
 13 15  2  0
  8 16  1  0
 16 17  1  0
 17 18  2  0
 17 19  1  0
 19 20  2  0
 20 21  1  0
 20 22  1  0
 22 23  2  0
 23 24  1  0
 24 25  2  0
 25 26  1  0
 16 27  1  0
 27 28  1  0
 27 29  1  0
 27 30  1  0
 15  9  1  0
 25 19  1  0
  1 31  1  0
  1 32  1  0
  1 33  1  0
  3 34  1  0
  3 35  1  0
  3 36  1  0
  4 37  1  0
  4 38  1  0
  4 39  1  0
  5 40  1  0
  8 41  1  6
 10 42  1  0
 11 43  1  0
 12 44  1  0
 14 45  1  0
 15 46  1  0
 21 47  1  0
 22 48  1  0
 23 49  1  0
 24 50  1  0
 26 51  1  0
 28 52  1  0
 28 53  1  0
 28 54  1  0
 29 55  1  0
 29 56  1  0
 29 57  1  0
 30 58  1  0
 30 59  1  0
 30 60  1  0
M  END
>  <vina_affinity>  (1) 
-5.885

$$$$
dec_C29699489
     RDKit          3D

 52 54  0  0  0  0  0  0  0  0999 V2000
    8.7390   25.5100    7.0600 C   0  0  0  0  0  0  0  0  0  0  0  0
    7.2680   25.4710    7.3790 C   0  0  0  0  0  0  0  0  0  0  0  0
    6.6930   24.4290    7.6740 O   0  0  0  0  0  0  0  0  0  0  0  0
    6.6450   26.6940    7.3050 N   0  0  0  0  0  0  0  0  0  0  0  0
    5.1880   26.8120    7.4030 C   0  0  1  0  0  0  0  0  0  0  0  0
    4.7600   28.1470    8.0290 C   0  0  0  0  0  0  0  0  0  0  0  0
    3.4430   28.0410    8.7750 C   0  0  0  0  0  0  0  0  0  0  0  0
    2.6030   28.9330    8.7780 O   0  0  0  0  0  0  0  0  0  0  0  0
    3.3070   26.8240    9.4140 N   0  0  0  0  0  0  0  0  0  0  0  0
    2.2570   26.3450   10.2390 C   0  0  0  0  0  0  0  0  0  0  0  0
    1.2500   27.2880   10.5080 C   0  0  0  0  0  0  0  0  0  0  0  0
    0.1490   26.9590   11.3110 C   0  0  0  0  0  0  0  0  0  0  0  0
   -1.0990   28.1770   11.6300 S   0  0  0  0  0  0  0  0  0  0  0  0
   -0.4530   29.3060   12.2640 O   0  0  0  0  0  0  0  0  0  0  0  0
   -2.2350   27.5240   12.2470 O   0  0  0  0  0  0  0  0  0  0  0  0
   -1.5210   28.6880   10.0740 N   0  0  0  0  0  0  0  0  0  0  0  0
   -1.2680   30.0430    9.7270 C   0  0  0  0  0  0  0  0  0  0  0  0
   -2.1100   31.0490   10.2040 C   0  0  0  0  0  0  0  0  0  0  0  0
   -1.8960   32.3750    9.8250 C   0  0  0  0  0  0  0  0  0  0  0  0
   -0.8440   32.6900    8.9640 C   0  0  0  0  0  0  0  0  0  0  0  0
   -0.0130   31.6770    8.4850 C   0  0  0  0  0  0  0  0  0  0  0  0
    1.2740   32.0660    7.4120 Cl  0  0  0  0  0  0  0  0  0  0  0  0
   -0.2190   30.3520    8.8630 C   0  0  0  0  0  0  0  0  0  0  0  0
    0.0100   25.6800   11.8380 C   0  0  0  0  0  0  0  0  0  0  0  0
    0.9980   24.7360   11.5750 C   0  0  0  0  0  0  0  0  0  0  0  0
    2.1120   25.0610   10.7890 C   0  0  0  0  0  0  0  0  0  0  0  0
    2.9790   24.0210   10.6290 O   0  0  0  0  0  0  0  0  0  0  0  0
    4.6670   26.6590    5.9870 C   0  0  0  0  0  0  0  0  0  0  0  0
    4.5880   27.6030    4.9780 C   0  0  0  0  0  0  0  0  0  0  0  0
    4.0420   27.0730    3.7750 C   0  0  0  0  0  0  0  0  0  0  0  0
    3.7300   25.7380    3.8950 C   0  0  0  0  0  0  0  0  0  0  0  0
    4.1040   25.1290    5.4470 S   0  0  0  0  0  0  0  0  0  0  0  0
    9.3169   25.5253    7.9959 H   0  0  0  0  0  0  0  0  0  0  0  0
    9.0112   24.6188    6.4755 H   0  0  0  0  0  0  0  0  0  0  0  0
    8.9636   26.4144    6.4755 H   0  0  0  0  0  0  0  0  0  0  0  0
    7.1210   27.4160    6.7770 H   0  0  0  0  0  0  0  0  0  0  0  0
    4.7709   26.0409    8.0674 H   0  0  0  0  0  0  0  0  0  0  0  0
    5.5396   28.4728    8.7334 H   0  0  0  0  0  0  0  0  0  0  0  0
    4.6253   28.8719    7.2127 H   0  0  0  0  0  0  0  0  0  0  0  0
    4.0550   26.1620    9.2430 H   0  0  0  0  0  0  0  0  0  0  0  0
    1.3270   28.2993   10.0821 H   0  0  0  0  0  0  0  0  0  0  0  0
   -1.2880   27.9720    9.3860 H   0  0  0  0  0  0  0  0  0  0  0  0
   -2.9417   30.7968   10.8782 H   0  0  0  0  0  0  0  0  0  0  0  0
   -2.5550   33.1700   10.2041 H   0  0  0  0  0  0  0  0  0  0  0  0
   -0.6705   33.7339    8.6639 H   0  0  0  0  0  0  0  0  0  0  0  0
    0.4400   29.5573    8.4832 H   0  0  0  0  0  0  0  0  0  0  0  0
   -0.8649   25.4191   12.4516 H   0  0  0  0  0  0  0  0  0  0  0  0
    0.9035   23.7214   11.9894 H   0  0  0  0  0  0  0  0  0  0  0  0
    3.6700   24.2700    9.9790 H   0  0  0  0  0  0  0  0  0  0  0  0
    4.9116   28.6480    5.0930 H   0  0  0  0  0  0  0  0  0  0  0  0
    3.8877   27.6608    2.8581 H   0  0  0  0  0  0  0  0  0  0  0  0
    3.2915   25.1341    3.0869 H   0  0  0  0  0  0  0  0  0  0  0  0
  1  2  1  0
  2  3  2  0
  2  4  1  0
  4  5  1  0
  5  6  1  0
  6  7  1  0
  7  8  2  0
  7  9  1  0
  9 10  1  0
 10 11  2  0
 11 12  1  0
 12 13  1  0
 13 14  2  0
 13 15  2  0
 13 16  1  0
 16 17  1  0
 17 18  2  0
 18 19  1  0
 19 20  2  0
 20 21  1  0
 21 22  1  0
 21 23  2  0
 12 24  2  0
 24 25  1  0
 25 26  2  0
 26 27  1  0
  5 28  1  0
 28 29  2  0
 29 30  1  0
 30 31  2  0
 31 32  1  0
 26 10  1  0
 32 28  1  0
 23 17  1  0
  1 33  1  0
  1 34  1  0
  1 35  1  0
  4 36  1  0
  5 37  1  1
  6 38  1  0
  6 39  1  0
  9 40  1  0
 11 41  1  0
 16 42  1  0
 18 43  1  0
 19 44  1  0
 20 45  1  0
 23 46  1  0
 24 47  1  0
 25 48  1  0
 27 49  1  0
 29 50  1  0
 30 51  1  0
 31 52  1  0
M  END
>  <vina_affinity>  (1) 
-9.509

$$$$
dec_C32935577
     RDKit          3D

 58 60  0  0  0  0  0  0  0  0999 V2000
    1.6950   31.2340    7.2040 C   0  0  0  0  0  0  0  0  0  0  0  0
    1.0590   30.2070    8.0950 C   0  0  0  0  0  0  0  0  0  0  0  0
   -0.3290   30.1710    8.2520 C   0  0  0  0  0  0  0  0  0  0  0  0
   -0.9150   29.2370    9.1040 C   0  0  0  0  0  0  0  0  0  0  0  0
   -0.1240   28.3290    9.8130 C   0  0  0  0  0  0  0  0  0  0  0  0
   -0.7460   27.3440   10.6310 N   0  0  0  0  0  0  0  0  0  0  0  0
   -1.6440   27.8010   11.9750 S   0  0  0  0  0  0  0  0  0  0  0  0
   -0.8040   28.6860   12.7540 O   0  0  0  0  0  0  0  0  0  0  0  0
   -2.9790   28.1960   11.5860 O   0  0  0  0  0  0  0  0  0  0  0  0
   -1.8040   26.2910   12.9100 C   0  0  0  0  0  0  0  0  0  0  0  0
   -0.7590   25.3680   12.9210 C   0  0  0  0  0  0  0  0  0  0  0  0
   -0.8580   24.2190   13.7120 C   0  0  0  0  0  0  0  0  0  0  0  0
   -1.9800   23.9710   14.5230 C   0  0  0  0  0  0  0  0  0  0  0  0
   -2.0140   22.7980   15.3040 N   0  0  0  0  0  0  0  0  0  0  0  0
   -0.7460   22.3310   15.8770 C   0  0  0  0  0  0  0  0  0  0  0  0
   -0.9510   21.0070   16.6200 C   0  0  0  0  0  0  0  0  0  0  0  0
   -1.9750   20.1170   15.9210 C   0  0  0  0  0  0  0  0  0  0  0  0
   -3.0020   19.6050   16.8480 N   0  0  0  0  0  0  0  0  0  0  0  0
   -4.2350   20.2310   16.7940 C   0  0  0  0  0  0  0  0  0  0  0  0
   -4.5070   21.4790   17.3530 C   0  0  0  0  0  0  0  0  0  0  0  0
   -5.7950   22.0030   17.2660 C   0  0  0  0  0  0  0  0  0  0  0  0
   -6.7910   21.2770   16.6210 C   0  0  0  0  0  0  0  0  0  0  0  0
   -6.4730   20.0410   16.0760 C   0  0  0  0  0  0  0  0  0  0  0  0
   -5.2250   19.5680   16.1850 N   0  0  0  0  0  0  0  0  0  0  0  0
   -3.0300   24.9180   14.4740 C   0  0  0  0  0  0  0  0  0  0  0  0
   -4.2370   24.7540   15.2870 N   0  0  0  0  0  0  0  0  0  0  0  0
   -5.2850   24.4440   14.7080 O   0  0  0  0  0  0  0  0  0  0  0  0
   -4.1420   24.9680   16.5070 O   0  0  0  0  0  0  0  0  0  0  0  0
   -2.9420   26.0800   13.6890 C   0  0  0  0  0  0  0  0  0  0  0  0
    1.2750   28.3670    9.6910 C   0  0  0  0  0  0  0  0  0  0  0  0
    2.1720   27.4400   10.4610 C   0  0  0  0  0  0  0  0  0  0  0  0
    1.8520   29.3170    8.8310 C   0  0  0  0  0  0  0  0  0  0  0  0
    2.1745   32.0082    7.8210 H   0  0  0  0  0  0  0  0  0  0  0  0
    2.4519   30.7503    6.5690 H   0  0  0  0  0  0  0  0  0  0  0  0
    0.9247   31.6961    6.5690 H   0  0  0  0  0  0  0  0  0  0  0  0
   -0.9614   30.8826    7.7010 H   0  0  0  0  0  0  0  0  0  0  0  0
   -2.0087   29.2142    9.2194 H   0  0  0  0  0  0  0  0  0  0  0  0
   -1.0720   26.4850   10.1930 H   0  0  0  0  0  0  0  0  0  0  0  0
    0.1391   25.5428   12.3104 H   0  0  0  0  0  0  0  0  0  0  0  0
   -0.0354   23.4888   13.6995 H   0  0  0  0  0  0  0  0  0  0  0  0
   -2.7410   22.8360   16.0270 H   0  0  0  0  0  0  0  0  0  0  0  0
   -0.0154   22.1833   15.0681 H   0  0  0  0  0  0  0  0  0  0  0  0
   -0.3763   23.0852   16.5873 H   0  0  0  0  0  0  0  0  0  0  0  0
    0.0098   20.4737   16.6687 H   0  0  0  0  0  0  0  0  0  0  0  0
   -1.3282   21.2355   17.6277 H   0  0  0  0  0  0  0  0  0  0  0  0
   -2.4711   20.7017   15.1323 H   0  0  0  0  0  0  0  0  0  0  0  0
   -1.4382   19.2518   15.5046 H   0  0  0  0  0  0  0  0  0  0  0  0
   -3.1070   18.5920   16.7340 H   0  0  0  0  0  0  0  0  0  0  0  0
   -3.7110   22.0454   17.8587 H   0  0  0  0  0  0  0  0  0  0  0  0
   -6.0231   22.9855   17.7050 H   0  0  0  0  0  0  0  0  0  0  0  0
   -7.8133   21.6759   16.5443 H   0  0  0  0  0  0  0  0  0  0  0  0
   -7.2432   19.4521   15.5564 H   0  0  0  0  0  0  0  0  0  0  0  0
   -4.9710   18.6730   15.7760 H   0  0  0  0  0  0  0  0  0  0  0  0
   -3.7607   26.8147   13.6886 H   0  0  0  0  0  0  0  0  0  0  0  0
    2.0213   27.5958   11.5394 H   0  0  0  0  0  0  0  0  0  0  0  0
    1.9303   26.3982   10.2037 H   0  0  0  0  0  0  0  0  0  0  0  0
    3.2212   27.6473   10.2037 H   0  0  0  0  0  0  0  0  0  0  0  0
    2.9468   29.3626    8.7339 H   0  0  0  0  0  0  0  0  0  0  0  0
  1  2  1  0
  2  3  2  0
  3  4  1  0
  4  5  2  0
  5  6  1  0
  6  7  1  0
  7  8  2  0
  7  9  2  0
  7 10  1  0
 10 11  2  0
 11 12  1  0
 12 13  2  0
 13 14  1  0
 14 15  1  0
 15 16  1  0
 16 17  1  0
 17 18  1  0
 18 19  1  0
 19 20  2  0
 20 21  1  0
 21 22  2  0
 22 23  1  0
 23 24  2  0
 13 25  1  0
 25 26  1  0
 26 27  2  0
 26 28  1  0
 25 29  2  0
  5 30  1  0
 30 31  1  0
 30 32  2  0
 32  2  1  0
 29 10  1  0
 24 19  1  0
  1 33  1  0
  1 34  1  0
  1 35  1  0
  3 36  1  0
  4 37  1  0
  6 38  1  0
 11 39  1  0
 12 40  1  0
 14 41  1  0
 15 42  1  0
 15 43  1  0
 16 44  1  0
 16 45  1  0
 17 46  1  0
 17 47  1  0
 18 48  1  0
 20 49  1  0
 21 50  1  0
 22 51  1  0
 23 52  1  0
 24 53  1  0
 29 54  1  0
 31 55  1  0
 31 56  1  0
 31 57  1  0
 32 58  1  0
M  CHG  3  24   1  26   1  28  -1
M  END
>  <vina_affinity>  (1) 
-8.252

$$$$
dec_C58000609
     RDKit          3D

 31 33  0  0  0  0  0  0  0  0999 V2000
    1.4810   32.3210    6.7110 N   0  0  0  0  0  0  0  0  0  0  0  0
    1.3560   31.3840    7.3860 C   0  0  0  0  0  0  0  0  0  0  0  0
    1.1770   30.2540    8.2450 C   0  0  0  0  0  0  0  0  0  0  0  0
   -0.1060   29.9820    8.7440 C   0  0  0  0  0  0  0  0  0  0  0  0
   -0.2590   28.8810    9.5570 C   0  0  0  0  0  0  0  0  0  0  0  0
    0.8500   28.1070    9.8540 C   0  0  0  0  0  0  0  0  0  0  0  0
    2.0930   28.3430    9.4040 N   0  0  0  0  0  0  0  0  0  0  0  0
    2.2630   29.4230    8.6000 C   0  0  0  0  0  0  0  0  0  0  0  0
    3.5420   29.6690    8.0710 N   0  0  0  0  0  0  0  0  0  0  0  0
    4.4690   28.5410    8.1360 C   0  0  0  0  0  0  0  0  0  0  0  0
    4.5000   27.7120    6.8770 C   0  0  0  0  0  0  0  0  0  0  0  0
    4.1060   28.1920    5.5820 C   0  0  0  0  0  0  0  0  0  0  0  0
    4.2310   27.2370    4.5990 C   0  0  0  0  0  0  0  0  0  0  0  0
    4.8190   25.7570    5.2170 S   0  0  0  0  0  0  0  0  0  0  0  0
    4.9100   26.3930    6.8020 C   0  0  0  0  0  0  0  0  0  0  0  0
    0.4870   26.9840   10.7850 C   0  0  0  0  0  0  0  0  0  0  0  0
   -1.0370   26.9390   10.6030 C   0  0  0  0  0  0  0  0  0  0  0  0
   -1.4790   28.3670   10.2440 C   0  0  0  0  0  0  0  0  0  0  0  0
   -0.9613   30.6269    8.4940 H   0  0  0  0  0  0  0  0  0  0  0  0
    3.9570   30.4990    8.4860 H   0  0  0  0  0  0  0  0  0  0  0  0
    5.4805   28.9323    8.3198 H   0  0  0  0  0  0  0  0  0  0  0  0
    4.1211   27.8838    8.9465 H   0  0  0  0  0  0  0  0  0  0  0  0
    3.7432   29.2136    5.3958 H   0  0  0  0  0  0  0  0  0  0  0  0
    3.9819   27.4065    3.5411 H   0  0  0  0  0  0  0  0  0  0  0  0
    5.2579   25.8142    7.6703 H   0  0  0  0  0  0  0  0  0  0  0  0
    0.9589   26.0380   10.4812 H   0  0  0  0  0  0  0  0  0  0  0  0
    0.8170   27.1298   11.8242 H   0  0  0  0  0  0  0  0  0  0  0  0
   -1.3020   26.2445    9.7921 H   0  0  0  0  0  0  0  0  0  0  0  0
   -1.5356   26.5878   11.5185 H   0  0  0  0  0  0  0  0  0  0  0  0
   -2.3494   28.3629    9.5714 H   0  0  0  0  0  0  0  0  0  0  0  0
   -1.8016   28.9707   11.1051 H   0  0  0  0  0  0  0  0  0  0  0  0
  1  2  3  0
  2  3  1  0
  3  4  2  0
  4  5  1  0
  5  6  2  0
  6  7  1  0
  7  8  2  0
  8  9  1  0
  9 10  1  0
 10 11  1  0
 11 12  1  0
 12 13  2  0
 13 14  1  0
 14 15  1  0
  6 16  1  0
 16 17  1  0
 17 18  1  0
  8  3  1  0
 15 11  2  0
 18  5  1  0
  4 19  1  0
  9 20  1  0
 10 21  1  0
 10 22  1  0
 12 23  1  0
 13 24  1  0
 15 25  1  0
 16 26  1  0
 16 27  1  0
 17 28  1  0
 17 29  1  0
 18 30  1  0
 18 31  1  0
M  END
>  <vina_affinity>  (1) 
-7.301

$$$$
dec_C32791557
     RDKit          3D

 47 48  0  0  0  0  0  0  0  0999 V2000
   -2.6580   27.3640   11.5860 C   0  0  0  0  0  0  0  0  0  0  0  0
   -1.5240   27.4190   10.5620 C   0  0  2  0  0  0  0  0  0  0  0  0
   -0.2820   26.8240   11.1610 N   0  0  0  0  0  0  0  0  0  0  0  0
    0.1080   25.4200   10.6810 C   0  0  2  0  0  0  0  0  0  0  0  0
   -0.6880   24.4460   11.5440 C   0  0  0  0  0  0  0  0  0  0  0  0
    1.6150   25.2280   10.9100 C   0  0  0  0  0  0  0  0  0  0  0  0
    1.9760   24.8160   12.0220 O   0  0  0  0  0  0  0  0  0  0  0  0
    2.6050   25.6240    9.8570 C   0  0  0  0  0  0  0  0  0  0  0  0
    3.2410   24.6710    9.1370 C   0  0  0  0  0  0  0  0  0  0  0  0
    2.9800   23.3180    9.3260 N   0  0  0  0  0  0  0  0  0  0  0  0
    4.2060   25.0560    8.2110 N   0  0  0  0  0  0  0  0  0  0  0  0
    4.9910   24.0360    7.5100 C   0  0  0  0  0  0  0  0  0  0  0  0
    4.4820   26.3840    7.8820 C   0  0  0  0  0  0  0  0  0  0  0  0
    5.3300   26.7010    7.0500 O   0  0  0  0  0  0  0  0  0  0  0  0
    3.7550   27.3400    8.5740 N   0  0  0  0  0  0  0  0  0  0  0  0
    4.0540   28.7340    8.2920 C   0  0  0  0  0  0  0  0  0  0  0  0
    2.9690   27.0400    9.6530 C   0  0  0  0  0  0  0  0  0  0  0  0
    2.5600   27.8720   10.4620 O   0  0  0  0  0  0  0  0  0  0  0  0
   -1.2220   28.8190   10.0610 C   0  0  0  0  0  0  0  0  0  0  0  0
   -1.9420   29.9090   10.5790 C   0  0  0  0  0  0  0  0  0  0  0  0
   -1.7090   31.2070   10.1140 C   0  0  0  0  0  0  0  0  0  0  0  0
   -0.7610   31.4430    9.1160 C   0  0  0  0  0  0  0  0  0  0  0  0
   -0.5330   33.0680    8.5860 Cl  0  0  0  0  0  0  0  0  0  0  0  0
   -0.0460   30.3690    8.5800 C   0  0  0  0  0  0  0  0  0  0  0  0
    1.1300   30.5670    7.3330 Cl  0  0  0  0  0  0  0  0  0  0  0  0
   -0.2790   29.0660    9.0480 C   0  0  0  0  0  0  0  0  0  0  0  0
   -2.2362   27.3845   12.6017 H   0  0  0  0  0  0  0  0  0  0  0  0
   -3.3204   28.2311   11.4465 H   0  0  0  0  0  0  0  0  0  0  0  0
   -3.2333   26.4369   11.4465 H   0  0  0  0  0  0  0  0  0  0  0  0
   -1.8600   26.8394    9.6895 H   0  0  0  0  0  0  0  0  0  0  0  0
    0.5050   27.4340   10.8810 H   0  0  0  0  0  0  0  0  0  0  0  0
   -0.3250   26.8690   12.1860 H   0  0  0  0  0  0  0  0  0  0  0  0
   -0.1049   25.2624    9.6134 H   0  0  0  0  0  0  0  0  0  0  0  0
   -0.5081   24.6662   12.6066 H   0  0  0  0  0  0  0  0  0  0  0  0
   -1.7604   24.5531   11.3238 H   0  0  0  0  0  0  0  0  0  0  0  0
   -0.3695   23.4164   11.3238 H   0  0  0  0  0  0  0  0  0  0  0  0
    2.0290   23.0630    9.0600 H   0  0  0  0  0  0  0  0  0  0  0  0
    3.1470   23.0070   10.2900 H   0  0  0  0  0  0  0  0  0  0  0  0
    5.4899   23.3877    8.2454 H   0  0  0  0  0  0  0  0  0  0  0  0
    4.3244   23.4296    6.8792 H   0  0  0  0  0  0  0  0  0  0  0  0
    5.7479   24.5251    6.8792 H   0  0  0  0  0  0  0  0  0  0  0  0
    4.1716   29.2825    9.2382 H   0  0  0  0  0  0  0  0  0  0  0  0
    4.9865   28.7990    7.7122 H   0  0  0  0  0  0  0  0  0  0  0  0
    3.2302   29.1757    7.7122 H   0  0  0  0  0  0  0  0  0  0  0  0
   -2.6980   29.7391   11.3597 H   0  0  0  0  0  0  0  0  0  0  0  0
   -2.2767   32.0486   10.5375 H   0  0  0  0  0  0  0  0  0  0  0  0
    0.2846   28.2260    8.6157 H   0  0  0  0  0  0  0  0  0  0  0  0
  1  2  1  0
  2  3  1  0
  3  4  1  0
  4  5  1  0
  4  6  1  0
  6  7  2  0
  6  8  1  0
  8  9  2  0
  9 10  1  0
  9 11  1  0
 11 12  1  0
 11 13  1  0
 13 14  2  0
 13 15  1  0
 15 16  1  0
 15 17  1  0
 17 18  2  0
  2 19  1  0
 19 20  2  0
 20 21  1  0
 21 22  2  0
 22 23  1  0
 22 24  1  0
 24 25  1  0
 24 26  2  0
 17  8  1  0
 26 19  1  0
  1 27  1  0
  1 28  1  0
  1 29  1  0
  2 30  1  6
  3 31  1  0
  3 32  1  0
  4 33  1  6
  5 34  1  0
  5 35  1  0
  5 36  1  0
 10 37  1  0
 10 38  1  0
 12 39  1  0
 12 40  1  0
 12 41  1  0
 16 42  1  0
 16 43  1  0
 16 44  1  0
 20 45  1  0
 21 46  1  0
 26 47  1  0
M  CHG  1   3   1
M  END
>  <vina_affinity>  (1) 
-7.737

$$$$
dec_C04235664
     RDKit          3D

 53 56  0  0  0  0  0  0  0  0999 V2000
   -2.2700   32.7090   10.8360 C   0  0  0  0  0  0  0  0  0  0  0  0
   -1.7490   32.1390    9.5150 C   0  0  0  0  0  0  0  0  0  0  0  0
   -0.7000   33.0650    8.8960 C   0  0  0  0  0  0  0  0  0  0  0  0
   -1.2160   30.7280    9.6870 C   0  0  0  0  0  0  0  0  0  0  0  0
   -1.8000   29.8690   10.6260 C   0  0  0  0  0  0  0  0  0  0  0  0
   -1.3210   28.5660   10.7970 C   0  0  0  0  0  0  0  0  0  0  0  0
   -0.2470   28.0920   10.0350 C   0  0  0  0  0  0  0  0  0  0  0  0
    0.1740   26.7730   10.2650 N   0  0  0  0  0  0  0  0  0  0  0  0
   -0.5290   25.6150   10.0980 C   0  0  0  0  0  0  0  0  0  0  0  0
   -1.6780   25.4740    9.7100 O   0  0  0  0  0  0  0  0  0  0  0  0
    0.2800   24.5790   10.4520 O   0  0  0  0  0  0  0  0  0  0  0  0
    0.4210   24.3900   11.8610 C   0  0  2  0  0  0  0  0  0  0  0  0
    1.6100   23.5010   12.1770 C   0  0  0  0  0  0  0  0  0  0  0  0
    1.3580   22.9070   13.4610 O   0  0  0  0  0  0  0  0  0  0  0  0
   -0.0520   23.0500   13.7570 C   0  0  1  0  0  0  0  0  0  0  0  0
   -0.7120   23.6170   12.5100 C   0  0  2  0  0  0  0  0  0  0  0  0
   -1.1450   22.4920   11.7060 O   0  0  0  0  0  0  0  0  0  0  0  0
   -0.8740   21.2820   12.4430 C   0  0  0  0  0  0  0  0  0  0  0  0
   -0.7180   21.6910   13.9020 C   0  0  2  0  0  0  0  0  0  0  0  0
   -2.0210   21.7860   14.5610 N   0  0  0  0  0  0  0  0  0  0  0  0
   -2.1240   21.9210   15.9350 C   0  0  0  0  0  0  0  0  0  0  0  0
   -1.1220   21.8920   16.6450 O   0  0  0  0  0  0  0  0  0  0  0  0
   -3.4710   22.1160   16.4360 C   0  0  0  0  0  0  0  0  0  0  0  0
   -4.3940   21.2770   17.0420 C   0  0  0  0  0  0  0  0  0  0  0  0
   -5.5490   22.0540   17.3060 C   0  0  0  0  0  0  0  0  0  0  0  0
   -5.2700   23.3180   16.8510 C   0  0  0  0  0  0  0  0  0  0  0  0
   -4.0210   23.3670   16.3260 O   0  0  0  0  0  0  0  0  0  0  0  0
    0.3390   28.9420    9.0990 C   0  0  0  0  0  0  0  0  0  0  0  0
   -0.1410   30.2480    8.9270 C   0  0  0  0  0  0  0  0  0  0  0  0
   -1.7908   32.1847   11.6759 H   0  0  0  0  0  0  0  0  0  0  0  0
   -2.0339   33.7820   10.8909 H   0  0  0  0  0  0  0  0  0  0  0  0
   -3.3598   32.5701   10.8909 H   0  0  0  0  0  0  0  0  0  0  0  0
   -2.5977   32.0802    8.8177 H   0  0  0  0  0  0  0  0  0  0  0  0
   -0.1341   33.5646    9.6961 H   0  0  0  0  0  0  0  0  0  0  0  0
   -0.0115   32.4747    8.2734 H   0  0  0  0  0  0  0  0  0  0  0  0
   -1.2003   33.8214    8.2734 H   0  0  0  0  0  0  0  0  0  0  0  0
   -2.6445   30.2227   11.2357 H   0  0  0  0  0  0  0  0  0  0  0  0
   -1.7940   27.9061   11.5391 H   0  0  0  0  0  0  0  0  0  0  0  0
    1.1220   26.6270   10.5820 H   0  0  0  0  0  0  0  0  0  0  0  0
    0.4875   25.4218   12.2365 H   0  0  0  0  0  0  0  0  0  0  0  0
    1.7107   22.7178   11.4112 H   0  0  0  0  0  0  0  0  0  0  0  0
    2.5439   24.0822   12.1887 H   0  0  0  0  0  0  0  0  0  0  0  0
   -0.1518   23.6579   14.6683 H   0  0  0  0  0  0  0  0  0  0  0  0
   -1.5926   24.2559   12.6723 H   0  0  0  0  0  0  0  0  0  0  0  0
   -1.7096   20.5750   12.3336 H   0  0  0  0  0  0  0  0  0  0  0  0
    0.0329   20.7834   12.0702 H   0  0  0  0  0  0  0  0  0  0  0  0
   -0.1483   20.9822   14.5210 H   0  0  0  0  0  0  0  0  0  0  0  0
   -2.8300   21.9860   13.9880 H   0  0  0  0  0  0  0  0  0  0  0  0
   -4.2557   20.2106   17.2737 H   0  0  0  0  0  0  0  0  0  0  0  0
   -6.4811   21.7128   17.7800 H   0  0  0  0  0  0  0  0  0  0  0  0
   -5.9621   24.1713   16.9046 H   0  0  0  0  0  0  0  0  0  0  0  0
    1.1838   28.5859    8.4911 H   0  0  0  0  0  0  0  0  0  0  0  0
    0.3335   30.9060    8.1841 H   0  0  0  0  0  0  0  0  0  0  0  0
  1  2  1  0
  2  3  1  0
  2  4  1  0
  4  5  2  0
  5  6  1  0
  6  7  2  0
  7  8  1  0
  8  9  1  0
  9 10  2  0
  9 11  1  0
 11 12  1  0
 12 13  1  0
 13 14  1  0
 14 15  1  0
 15 16  1  0
 16 17  1  0
 17 18  1  0
 18 19  1  0
 19 20  1  0
 20 21  1  0
 21 22  2  0
 21 23  1  0
 23 24  2  0
 24 25  1  0
 25 26  2  0
 26 27  1  0
  7 28  1  0
 28 29  2  0
 29  4  1  0
 16 12  1  0
 27 23  1  0
 19 15  1  0
  1 30  1  0
  1 31  1  0
  1 32  1  0
  2 33  1  0
  3 34  1  0
  3 35  1  0
  3 36  1  0
  5 37  1  0
  6 38  1  0
  8 39  1  0
 12 40  1  1
 13 41  1  0
 13 42  1  0
 15 43  1  1
 16 44  1  1
 18 45  1  0
 18 46  1  0
 19 47  1  1
 20 48  1  0
 24 49  1  0
 25 50  1  0
 26 51  1  0
 28 52  1  0
 29 53  1  0
M  END
>  <vina_affinity>  (1) 
-8.295

$$$$
dec_C39674531
     RDKit          3D

 75 78  0  0  0  0  0  0  0  0999 V2000
   -2.1090   19.5670   13.6120 C   0  0  0  0  0  0  0  0  0  0  0  0
   -0.7120   19.3530   14.0800 C   0  0  0  0  0  0  0  0  0  0  0  0
    0.0830   20.1630   14.7880 C   0  0  0  0  0  0  0  0  0  0  0  0
   -0.1100   21.4880   15.4450 C   0  0  2  0  0  0  0  0  0  0  0  0
   -0.7720   21.4410   16.8220 C   0  0  0  0  0  0  0  0  0  0  0  0
   -0.8710   22.3130   14.5220 N   0  0  0  0  0  0  0  0  0  0  0  0
   -0.2640   23.0540   13.5380 C   0  0  0  0  0  0  0  0  0  0  0  0
    0.9510   23.0730   13.3640 O   0  0  0  0  0  0  0  0  0  0  0  0
   -1.2080   23.9210   12.7230 C   0  0  2  0  0  0  0  0  0  0  0  0
   -0.5710   24.5200   11.4720 C   0  0  0  0  0  0  0  0  0  0  0  0
   -1.3670   25.7090   11.1830 N   0  0  0  0  0  0  0  0  0  0  0  0
   -1.0680   26.4630   10.0660 C   0  0  0  0  0  0  0  0  0  0  0  0
   -1.1460   25.9460    8.9450 O   0  0  0  0  0  0  0  0  0  0  0  0
   -0.6440   27.9520   10.1800 C   0  0  2  0  0  0  0  0  0  0  0  0
   -0.6090   28.7330    8.9920 O   0  0  0  0  0  0  0  0  0  0  0  0
   -0.8470   30.0770    9.0870 C   0  0  0  0  0  0  0  0  0  0  0  0
   -1.9870   30.4110    9.8250 C   0  0  0  0  0  0  0  0  0  0  0  0
   -2.3290   31.7470   10.0410 C   0  0  0  0  0  0  0  0  0  0  0  0
   -1.5250   32.7590    9.5250 C   0  0  0  0  0  0  0  0  0  0  0  0
   -0.3870   32.4340    8.7880 C   0  0  0  0  0  0  0  0  0  0  0  0
   -0.0470   31.0950    8.5680 C   0  0  0  0  0  0  0  0  0  0  0  0
    0.7230   28.0590   10.9050 C   0  0  0  0  0  0  0  0  0  0  0  0
    1.9130   28.1930    9.9530 C   0  0  0  0  0  0  0  0  0  0  0  0
    0.7220   29.2480   11.8750 C   0  0  0  0  0  0  0  0  0  0  0  0
   -2.3670   25.9230   12.2160 C   0  0  0  0  0  0  0  0  0  0  0  0
   -1.7950   25.1750   13.4440 C   0  0  0  0  0  0  0  0  0  0  0  0
   -2.9020   24.7940   14.4490 C   0  0  0  0  0  0  0  0  0  0  0  0
   -3.4360   25.9840   15.2330 C   0  0  0  0  0  0  0  0  0  0  0  0
   -2.2990   26.6880   15.8870 N   0  0  0  0  0  0  0  0  0  0  0  0
   -1.2940   27.2250   14.9270 C   0  0  0  0  0  0  0  0  0  0  0  0
   -0.7120   26.0660   14.1300 C   0  0  0  0  0  0  0  0  0  0  0  0
    1.3770   19.4210   14.9100 C   0  0  2  0  0  0  0  0  0  0  0  0
    2.5640   20.1230   14.2670 C   0  0  0  0  0  0  0  0  0  0  0  0
    1.0980   18.1680   14.1640 N   0  0  0  0  0  0  0  0  0  0  0  0
   -0.0830   18.1860   13.7230 N   0  0  0  0  0  0  0  0  0  0  0  0
   -2.7753   19.6691   14.4813 H   0  0  0  0  0  0  0  0  0  0  0  0
   -2.1559   20.4828   13.0045 H   0  0  0  0  0  0  0  0  0  0  0  0
   -2.4279   18.7072   13.0045 H   0  0  0  0  0  0  0  0  0  0  0  0
    0.8838   21.9101   15.6550 H   0  0  0  0  0  0  0  0  0  0  0  0
    0.0011   21.4959   17.6026 H   0  0  0  0  0  0  0  0  0  0  0  0
   -1.4604   22.2925   16.9272 H   0  0  0  0  0  0  0  0  0  0  0  0
   -1.3331   20.5008   16.9272 H   0  0  0  0  0  0  0  0  0  0  0  0
   -1.8410   22.4850   14.7570 H   0  0  0  0  0  0  0  0  0  0  0  0
   -1.9934   23.1805   12.5111 H   0  0  0  0  0  0  0  0  0  0  0  0
    0.4775   24.7923   11.6632 H   0  0  0  0  0  0  0  0  0  0  0  0
   -0.5610   23.8116   10.6305 H   0  0  0  0  0  0  0  0  0  0  0  0
   -1.4692   28.3967   10.7556 H   0  0  0  0  0  0  0  0  0  0  0  0
   -2.6205   29.6129   10.2394 H   0  0  0  0  0  0  0  0  0  0  0  0
   -3.2313   31.9992   10.6174 H   0  0  0  0  0  0  0  0  0  0  0  0
   -1.7869   33.8132    9.6983 H   0  0  0  0  0  0  0  0  0  0  0  0
    0.2464   33.2342    8.3776 H   0  0  0  0  0  0  0  0  0  0  0  0
    0.8518   30.8447    7.9853 H   0  0  0  0  0  0  0  0  0  0  0  0
    0.8472   27.1122   11.4510 H   0  0  0  0  0  0  0  0  0  0  0  0
    2.8395   28.2973   10.5366 H   0  0  0  0  0  0  0  0  0  0  0  0
    1.9781   27.2965    9.3189 H   0  0  0  0  0  0  0  0  0  0  0  0
    1.7771   29.0815    9.3189 H   0  0  0  0  0  0  0  0  0  0  0  0
    0.7223   28.8765   12.9104 H   0  0  0  0  0  0  0  0  0  0  0  0
    1.6196   29.8607   11.7050 H   0  0  0  0  0  0  0  0  0  0  0  0
   -0.1767   29.8592   11.7050 H   0  0  0  0  0  0  0  0  0  0  0  0
   -2.4855   26.9953   12.4306 H   0  0  0  0  0  0  0  0  0  0  0  0
   -3.3641   25.5616   11.9242 H   0  0  0  0  0  0  0  0  0  0  0  0
   -3.7356   24.3382   13.8946 H   0  0  0  0  0  0  0  0  0  0  0  0
   -2.4582   24.0970   15.1751 H   0  0  0  0  0  0  0  0  0  0  0  0
   -3.9517   26.6740   14.5489 H   0  0  0  0  0  0  0  0  0  0  0  0
   -4.1446   25.6349   15.9985 H   0  0  0  0  0  0  0  0  0  0  0  0
   -1.8280   26.0460   16.5430 H   0  0  0  0  0  0  0  0  0  0  0  0
   -2.6580   27.4600   16.4660 H   0  0  0  0  0  0  0  0  0  0  0  0
   -1.7789   27.9376   14.2435 H   0  0  0  0  0  0  0  0  0  0  0  0
   -0.4927   27.7432   15.4742 H   0  0  0  0  0  0  0  0  0  0  0  0
   -0.0535   26.4759   13.3500 H   0  0  0  0  0  0  0  0  0  0  0  0
   -0.1691   25.4254   14.8406 H   0  0  0  0  0  0  0  0  0  0  0  0
    1.6627   19.3023   15.9656 H   0  0  0  0  0  0  0  0  0  0  0  0
    3.2273   20.5153   15.0520 H   0  0  0  0  0  0  0  0  0  0  0  0
    3.1186   19.4076   13.6421 H   0  0  0  0  0  0  0  0  0  0  0  0
    2.2042   20.9537   13.6421 H   0  0  0  0  0  0  0  0  0  0  0  0
  1  2  1  0
  2  3  2  0
  3  4  1  0
  4  5  1  0
  4  6  1  0
  6  7  1  0
  7  8  2  0
  7  9  1  0
  9 10  1  0
 10 11  1  0
 11 12  1  0
 12 13  2  0
 12 14  1  0
 14 15  1  0
 15 16  1  0
 16 17  2  0
 17 18  1  0
 18 19  2  0
 19 20  1  0
 20 21  2  0
 14 22  1  0
 22 23  1  0
 22 24  1  0
 11 25  1  0
 25 26  1  0
 26 27  1  0
 27 28  1  0
 28 29  1  0
 29 30  1  0
 30 31  1  0
  3 32  1  0
 32 33  1  0
 32 34  1  0
 34 35  2  0
 35  2  1  0
 26  9  1  0
 21 16  1  0
 31 26  1  0
  1 36  1  0
  1 37  1  0
  1 38  1  0
  4 39  1  1
  5 40  1  0
  5 41  1  0
  5 42  1  0
  6 43  1  0
  9 44  1  6
 10 45  1  0
 10 46  1  0
 14 47  1  1
 17 48  1  0
 18 49  1  0
 19 50  1  0
 20 51  1  0
 21 52  1  0
 22 53  1  0
 23 54  1  0
 23 55  1  0
 23 56  1  0
 24 57  1  0
 24 58  1  0
 24 59  1  0
 25 60  1  0
 25 61  1  0
 27 62  1  0
 27 63  1  0
 28 64  1  0
 28 65  1  0
 29 66  1  0
 29 67  1  0
 30 68  1  0
 30 69  1  0
 31 70  1  0
 31 71  1  0
 32 72  1  1
 33 73  1  0
 33 74  1  0
 33 75  1  0
M  CHG  1  29   1
M  END
>  <vina_affinity>  (1) 
-8.242

$$$$
dec_C34779793
     RDKit          3D

 63 66  0  0  0  0  0  0  0  0999 V2000
   -4.1450   30.4840   10.0860 C   0  0  0  0  0  0  0  0  0  0  0  0
   -2.6900   30.2720    9.7910 C   0  0  0  0  0  0  0  0  0  0  0  0
   -2.1480   30.6500    8.5640 C   0  0  0  0  0  0  0  0  0  0  0  0
   -0.7840   30.4880    8.3190 C   0  0  0  0  0  0  0  0  0  0  0  0
    0.0770   29.9610    9.2990 C   0  0  0  0  0  0  0  0  0  0  0  0
    1.5350   29.8290    8.9610 C   0  0  0  0  0  0  0  0  0  0  0  0
   -0.4590   29.5680   10.5430 C   0  0  0  0  0  0  0  0  0  0  0  0
    0.3810   28.9620   11.6600 C   0  0  0  0  0  0  0  0  0  0  0  0
    0.0040   27.5890   11.9860 N   0  0  0  0  0  0  0  0  0  0  0  0
   -0.8360   27.3960   13.0790 C   0  0  0  0  0  0  0  0  0  0  0  0
   -1.3340   28.3100   13.7310 O   0  0  0  0  0  0  0  0  0  0  0  0
   -1.0840   26.0080   13.4180 C   0  0  0  0  0  0  0  0  0  0  0  0
   -1.8280   25.4530   14.5300 C   0  0  0  0  0  0  0  0  0  0  0  0
   -2.5680   26.2880   15.5320 C   0  0  0  0  0  0  0  0  0  0  0  0
   -1.7640   24.0610   14.5200 C   0  0  0  0  0  0  0  0  0  0  0  0
   -2.2900   23.0770   15.4550 C   0  0  0  0  0  0  0  0  0  0  0  0
   -1.6180   22.5020   16.3110 O   0  0  0  0  0  0  0  0  0  0  0  0
   -3.6630   22.8490   15.3420 N   0  0  0  0  0  0  0  0  0  0  0  0
   -4.3180   21.9980   16.2660 N   0  0  0  0  0  0  0  0  0  0  0  0
   -0.9240   23.4750   13.1450 S   0  0  0  0  0  0  0  0  0  0  0  0
   -0.5770   25.0330   12.6050 C   0  0  0  0  0  0  0  0  0  0  0  0
    0.1380   25.2620   11.4420 N   0  0  0  0  0  0  0  0  0  0  0  0
    0.6820   24.2080   10.5710 C   0  0  0  0  0  0  0  0  0  0  0  0
    2.1970   24.3440   10.3970 C   0  0  0  0  0  0  0  0  0  0  0  0
    2.9800   24.0680   11.3040 O   0  0  0  0  0  0  0  0  0  0  0  0
    2.6080   24.7060    9.1310 N   0  0  0  0  0  0  0  0  0  0  0  0
    4.0030   24.7580    8.7650 C   0  0  0  0  0  0  0  0  0  0  0  0
    4.2550   25.8420    7.7510 C   0  0  0  0  0  0  0  0  0  0  0  0
    4.2670   27.1910    8.1350 C   0  0  0  0  0  0  0  0  0  0  0  0
    4.4800   28.1930    7.1880 C   0  0  0  0  0  0  0  0  0  0  0  0
    4.6760   27.8600    5.8480 C   0  0  0  0  0  0  0  0  0  0  0  0
    4.6560   26.5230    5.4540 C   0  0  0  0  0  0  0  0  0  0  0  0
    4.4440   25.5190    6.4000 C   0  0  0  0  0  0  0  0  0  0  0  0
    0.4280   26.5850   11.1120 C   0  0  0  0  0  0  0  0  0  0  0  0
    1.0670   26.8410   10.0860 O   0  0  0  0  0  0  0  0  0  0  0  0
   -1.8400   29.7440   10.7690 C   0  0  0  0  0  0  0  0  0  0  0  0
   -4.2989   30.5064   11.1750 H   0  0  0  0  0  0  0  0  0  0  0  0
   -4.4722   31.4393    9.6497 H   0  0  0  0  0  0  0  0  0  0  0  0
   -4.7312   29.6618    9.6497 H   0  0  0  0  0  0  0  0  0  0  0  0
   -2.7977   31.0775    7.7861 H   0  0  0  0  0  0  0  0  0  0  0  0
   -0.3738   30.7780    7.3404 H   0  0  0  0  0  0  0  0  0  0  0  0
    2.1232   29.7758    9.8890 H   0  0  0  0  0  0  0  0  0  0  0  0
    1.6937   28.9128    8.3733 H   0  0  0  0  0  0  0  0  0  0  0  0
    1.8556   30.7018    8.3733 H   0  0  0  0  0  0  0  0  0  0  0  0
    1.4356   28.9697   11.3474 H   0  0  0  0  0  0  0  0  0  0  0  0
    0.2117   29.5693   12.5614 H   0  0  0  0  0  0  0  0  0  0  0  0
   -2.2893   25.9736   16.5486 H   0  0  0  0  0  0  0  0  0  0  0  0
   -2.3066   27.3472   15.3912 H   0  0  0  0  0  0  0  0  0  0  0  0
   -3.6509   26.1558   15.3912 H   0  0  0  0  0  0  0  0  0  0  0  0
   -4.2310   23.4660   14.7660 H   0  0  0  0  0  0  0  0  0  0  0  0
   -5.3240   22.1820   16.1890 H   0  0  0  0  0  0  0  0  0  0  0  0
   -4.2350   21.0390   15.9020 H   0  0  0  0  0  0  0  0  0  0  0  0
    0.4609   23.2272   11.0173 H   0  0  0  0  0  0  0  0  0  0  0  0
    0.2128   24.3049    9.5808 H   0  0  0  0  0  0  0  0  0  0  0  0
    1.9430   24.5910    8.3700 H   0  0  0  0  0  0  0  0  0  0  0  0
    4.6035   24.9600    9.6642 H   0  0  0  0  0  0  0  0  0  0  0  0
    4.2852   23.7915    8.3221 H   0  0  0  0  0  0  0  0  0  0  0  0
    4.1075   27.4605    9.1895 H   0  0  0  0  0  0  0  0  0  0  0  0
    4.4934   29.2481    7.4989 H   0  0  0  0  0  0  0  0  0  0  0  0
    4.8461   28.6512    5.1030 H   0  0  0  0  0  0  0  0  0  0  0  0
    4.8074   26.2591    4.3969 H   0  0  0  0  0  0  0  0  0  0  0  0
    4.4251   24.4658    6.0830 H   0  0  0  0  0  0  0  0  0  0  0  0
   -2.2616   29.4575   11.7437 H   0  0  0  0  0  0  0  0  0  0  0  0
  1  2  1  0
  2  3  2  0
  3  4  1  0
  4  5  2  0
  5  6  1  0
  5  7  1  0
  7  8  1  0
  8  9  1  0
  9 10  1  0
 10 11  2  0
 10 12  1  0
 12 13  1  0
 13 14  1  0
 13 15  2  0
 15 16  1  0
 16 17  2  0
 16 18  1  0
 18 19  1  0
 15 20  1  0
 20 21  1  0
 21 22  1  0
 22 23  1  0
 23 24  1  0
 24 25  2  0
 24 26  1  0
 26 27  1  0
 27 28  1  0
 28 29  2  0
 29 30  1  0
 30 31  2  0
 31 32  1  0
 32 33  2  0
 22 34  1  0
 34 35  2  0
  7 36  2  0
 36  2  1  0
 34  9  1  0
 21 12  2  0
 33 28  1  0
  1 37  1  0
  1 38  1  0
  1 39  1  0
  3 40  1  0
  4 41  1  0
  6 42  1  0
  6 43  1  0
  6 44  1  0
  8 45  1  0
  8 46  1  0
 14 47  1  0
 14 48  1  0
 14 49  1  0
 18 50  1  0
 19 51  1  0
 19 52  1  0
 23 53  1  0
 23 54  1  0
 26 55  1  0
 27 56  1  0
 27 57  1  0
 29 58  1  0
 30 59  1  0
 31 60  1  0
 32 61  1  0
 33 62  1  0
 36 63  1  0
M  END
>  <vina_affinity>  (1) 
-9.051

$$$$
dec_C27308178
     RDKit          3D

 61 63  0  0  0  0  0  0  0  0999 V2000
   -2.2980   23.5420   15.3320 C   0  0  0  0  0  0  0  0  0  0  0  0
   -3.4480   24.4950   14.9960 C   0  0  0  0  0  0  0  0  0  0  0  0
   -4.7220   24.0440   15.7110 C   0  0  0  0  0  0  0  0  0  0  0  0
   -3.1120   25.9430   15.3840 C   0  0  0  0  0  0  0  0  0  0  0  0
   -2.5350   26.6920   14.2880 N   0  0  0  0  0  0  0  0  0  0  0  0
   -1.1910   26.9860   14.2160 C   0  0  0  0  0  0  0  0  0  0  0  0
   -0.3680   26.5740   15.0320 O   0  0  0  0  0  0  0  0  0  0  0  0
   -0.7700   27.8340   13.0080 C   0  0  0  0  0  0  0  0  0  0  0  0
   -0.8120   27.0940   11.7270 N   0  0  0  0  0  0  0  0  0  0  0  0
   -1.9170   27.4040   10.8140 C   0  0  0  0  0  0  0  0  0  0  0  0
   -1.7020   28.7700   10.2030 C   0  0  0  0  0  0  0  0  0  0  0  0
   -0.6260   29.0030    9.3340 C   0  0  0  0  0  0  0  0  0  0  0  0
   -0.4490   30.2540    8.7430 C   0  0  0  0  0  0  0  0  0  0  0  0
   -1.3480   31.2850    9.0110 C   0  0  0  0  0  0  0  0  0  0  0  0
   -2.4240   31.0670    9.8690 C   0  0  0  0  0  0  0  0  0  0  0  0
   -2.6020   29.8160   10.4610 C   0  0  0  0  0  0  0  0  0  0  0  0
    0.0970   26.0520   11.4640 C   0  0  0  0  0  0  0  0  0  0  0  0
   -0.2120   24.7330   11.5260 C   0  0  0  0  0  0  0  0  0  0  0  0
   -1.4970   24.3750   11.9450 N   0  0  0  0  0  0  0  0  0  0  0  0
    0.7410   23.7710   11.2100 N   0  0  0  0  0  0  0  0  0  0  0  0
    0.3550   22.3700   11.0200 C   0  0  0  0  0  0  0  0  0  0  0  0
    0.0730   21.6600   12.3280 C   0  0  0  0  0  0  0  0  0  0  0  0
   -1.0820   20.8830   12.4880 C   0  0  0  0  0  0  0  0  0  0  0  0
   -1.3320   20.2170   13.6900 C   0  0  0  0  0  0  0  0  0  0  0  0
   -0.4270   20.3180   14.7450 C   0  0  0  0  0  0  0  0  0  0  0  0
    0.7300   21.0810   14.5970 C   0  0  0  0  0  0  0  0  0  0  0  0
    0.9800   21.7470   13.3960 C   0  0  0  0  0  0  0  0  0  0  0  0
    2.0630   24.0920   10.9370 C   0  0  0  0  0  0  0  0  0  0  0  0
    2.9320   23.2800   10.6240 O   0  0  0  0  0  0  0  0  0  0  0  0
    2.3950   25.4110   11.0260 N   0  0  0  0  0  0  0  0  0  0  0  0
    1.4950   26.4240   11.0780 C   0  0  0  0  0  0  0  0  0  0  0  0
    1.8010   27.5850   10.8110 O   0  0  0  0  0  0  0  0  0  0  0  0
   -2.1978   23.4590   16.4243 H   0  0  0  0  0  0  0  0  0  0  0  0
   -2.5080   22.5496   14.9066 H   0  0  0  0  0  0  0  0  0  0  0  0
   -1.3618   23.9327   14.9066 H   0  0  0  0  0  0  0  0  0  0  0  0
   -3.6063   24.4660   13.9078 H   0  0  0  0  0  0  0  0  0  0  0  0
   -4.5703   24.0977   16.7992 H   0  0  0  0  0  0  0  0  0  0  0  0
   -5.5558   24.7016   15.4241 H   0  0  0  0  0  0  0  0  0  0  0  0
   -4.9564   23.0083   15.4241 H   0  0  0  0  0  0  0  0  0  0  0  0
   -4.0361   26.4451   15.7062 H   0  0  0  0  0  0  0  0  0  0  0  0
   -2.3672   25.9076   16.1927 H   0  0  0  0  0  0  0  0  0  0  0  0
   -3.1680   27.1880   13.6580 H   0  0  0  0  0  0  0  0  0  0  0  0
   -1.4481   28.6970   12.9345 H   0  0  0  0  0  0  0  0  0  0  0  0
    0.2741   28.1384   13.1730 H   0  0  0  0  0  0  0  0  0  0  0  0
   -1.9556   26.6479   10.0159 H   0  0  0  0  0  0  0  0  0  0  0  0
   -2.8647   27.3986   11.3724 H   0  0  0  0  0  0  0  0  0  0  0  0
    0.0846   28.1920    9.1166 H   0  0  0  0  0  0  0  0  0  0  0  0
    0.4001   30.4270    8.0654 H   0  0  0  0  0  0  0  0  0  0  0  0
   -1.2079   32.2714    8.5448 H   0  0  0  0  0  0  0  0  0  0  0  0
   -3.1331   31.8811   10.0797 H   0  0  0  0  0  0  0  0  0  0  0  0
   -3.4546   29.6481   11.1354 H   0  0  0  0  0  0  0  0  0  0  0  0
   -1.9050   23.7510   11.2440 H   0  0  0  0  0  0  0  0  0  0  0  0
   -2.0890   25.1980   12.0120 H   0  0  0  0  0  0  0  0  0  0  0  0
   -0.5517   22.3358   10.3982 H   0  0  0  0  0  0  0  0  0  0  0  0
    1.1985   21.8550   10.5370 H   0  0  0  0  0  0  0  0  0  0  0  0
   -1.7992   20.7966   11.6584 H   0  0  0  0  0  0  0  0  0  0  0  0
   -2.2438   19.6124   13.8040 H   0  0  0  0  0  0  0  0  0  0  0  0
   -0.6255   19.7964   15.6929 H   0  0  0  0  0  0  0  0  0  0  0  0
    1.4470   21.1584   15.4276 H   0  0  0  0  0  0  0  0  0  0  0  0
    1.8962   22.3456   13.2854 H   0  0  0  0  0  0  0  0  0  0  0  0
    3.3270   25.6450   10.7230 H   0  0  0  0  0  0  0  0  0  0  0  0
  1  2  1  0
  2  3  1  0
  2  4  1  0
  4  5  1  0
  5  6  1  0
  6  7  2  0
  6  8  1  0
  8  9  1  0
  9 10  1  0
 10 11  1  0
 11 12  2  0
 12 13  1  0
 13 14  2  0
 14 15  1  0
 15 16  2  0
  9 17  1  0
 17 18  2  0
 18 19  1  0
 18 20  1  0
 20 21  1  0
 21 22  1  0
 22 23  2  0
 23 24  1  0
 24 25  2  0
 25 26  1  0
 26 27  2  0
 20 28  1  0
 28 29  2  0
 28 30  1  0
 30 31  1  0
 31 32  2  0
 16 11  1  0
 31 17  1  0
 27 22  1  0
  1 33  1  0
  1 34  1  0
  1 35  1  0
  2 36  1  0
  3 37  1  0
  3 38  1  0
  3 39  1  0
  4 40  1  0
  4 41  1  0
  5 42  1  0
  8 43  1  0
  8 44  1  0
 10 45  1  0
 10 46  1  0
 12 47  1  0
 13 48  1  0
 14 49  1  0
 15 50  1  0
 16 51  1  0
 19 52  1  0
 19 53  1  0
 21 54  1  0
 21 55  1  0
 23 56  1  0
 24 57  1  0
 25 58  1  0
 26 59  1  0
 27 60  1  0
 30 61  1  0
M  END
>  <vina_affinity>  (1) 
-7.860

$$$$
dec_C40400491
     RDKit          3D

 53 56  0  0  0  0  0  0  0  0999 V2000
   -1.8950   33.4430   10.4610 C   0  0  0  0  0  0  0  0  0  0  0  0
   -1.6840   31.9810   10.2010 C   0  0  0  0  0  0  0  0  0  0  0  0
   -2.7740   31.1150   10.0870 C   0  0  0  0  0  0  0  0  0  0  0  0
   -2.5730   29.7580    9.8140 C   0  0  0  0  0  0  0  0  0  0  0  0
   -1.2840   29.2370    9.6400 C   0  0  0  0  0  0  0  0  0  0  0  0
   -1.1500   27.8560    9.3930 N   0  0  0  0  0  0  0  0  0  0  0  0
   -0.6620   26.8980   10.2360 C   0  0  0  0  0  0  0  0  0  0  0  0
    0.0750   25.9370    9.7630 N   0  0  0  0  0  0  0  0  0  0  0  0
    0.5310   25.0000   10.6400 C   0  0  0  0  0  0  0  0  0  0  0  0
    0.2400   24.9480   11.9430 C   0  0  0  0  0  0  0  0  0  0  0  0
   -0.6130   26.0190   12.4750 C   0  0  0  0  0  0  0  0  0  0  0  0
   -0.9400   26.0710   13.6530 O   0  0  0  0  0  0  0  0  0  0  0  0
   -1.0090   26.9460   11.5590 N   0  0  0  0  0  0  0  0  0  0  0  0
    0.7150   23.8440   12.8330 C   0  0  1  0  0  0  0  0  0  0  0  0
   -0.4250   22.8620   13.1430 C   0  0  0  0  0  0  0  0  0  0  0  0
   -0.9080   22.1840   12.2400 O   0  0  0  0  0  0  0  0  0  0  0  0
   -0.8600   22.8730   14.4610 N   0  0  0  0  0  0  0  0  0  0  0  0
   -1.8860   22.0900   15.0320 C   0  0  0  0  0  0  0  0  0  0  0  0
   -1.8910   20.6950   15.0530 C   0  0  0  0  0  0  0  0  0  0  0  0
   -2.9500   19.9850   15.6380 C   0  0  0  0  0  0  0  0  0  0  0  0
   -4.0370   20.6510   16.2180 C   0  0  0  0  0  0  0  0  0  0  0  0
   -5.1480   19.8430   16.8280 C   0  0  0  0  0  0  0  0  0  0  0  0
   -4.0100   22.0550   16.2130 C   0  0  0  0  0  0  0  0  0  0  0  0
   -5.0780   22.8350   16.8300 N   0  0  0  0  0  0  0  0  0  0  0  0
   -6.0730   23.0970   16.1410 O   0  0  0  0  0  0  0  0  0  0  0  0
   -4.9280   23.1560   18.0170 O   0  0  0  0  0  0  0  0  0  0  0  0
   -2.9560   22.7720   15.6200 C   0  0  0  0  0  0  0  0  0  0  0  0
    1.9200   23.0890   12.2690 C   0  0  0  0  0  0  0  0  0  0  0  0
    1.9530   23.0290   10.7580 C   0  0  0  0  0  0  0  0  0  0  0  0
    2.5780   22.1640   10.1530 O   0  0  0  0  0  0  0  0  0  0  0  0
    1.2990   24.0240   10.0860 N   0  0  0  0  0  0  0  0  0  0  0  0
   -0.1980   30.1140    9.7380 C   0  0  0  0  0  0  0  0  0  0  0  0
   -0.3950   31.4730   10.0100 C   0  0  0  0  0  0  0  0  0  0  0  0
   -1.9209   33.6225   11.5460 H   0  0  0  0  0  0  0  0  0  0  0  0
   -1.0705   34.0177   10.0139 H   0  0  0  0  0  0  0  0  0  0  0  0
   -2.8484   33.7611   10.0139 H   0  0  0  0  0  0  0  0  0  0  0  0
   -3.7959   31.5023   10.2126 H   0  0  0  0  0  0  0  0  0  0  0  0
   -3.4419   29.0882    9.7345 H   0  0  0  0  0  0  0  0  0  0  0  0
   -0.9160   27.6750    8.4190 H   0  0  0  0  0  0  0  0  0  0  0  0
   -1.6320   27.6710   11.8820 H   0  0  0  0  0  0  0  0  0  0  0  0
    1.0474   24.3261   13.7642 H   0  0  0  0  0  0  0  0  0  0  0  0
   -0.3970   23.5080   15.1010 H   0  0  0  0  0  0  0  0  0  0  0  0
   -1.0518   20.1435   14.6040 H   0  0  0  0  0  0  0  0  0  0  0  0
   -2.9263   18.8853   15.6413 H   0  0  0  0  0  0  0  0  0  0  0  0
   -5.0786   19.8934   17.9247 H   0  0  0  0  0  0  0  0  0  0  0  0
   -6.1175   20.2485   16.5029 H   0  0  0  0  0  0  0  0  0  0  0  0
   -5.0609   18.7958   16.5029 H   0  0  0  0  0  0  0  0  0  0  0  0
   -2.9730   23.8719   15.6185 H   0  0  0  0  0  0  0  0  0  0  0  0
    2.8359   23.5899   12.6158 H   0  0  0  0  0  0  0  0  0  0  0  0
    1.8439   22.0521   12.6282 H   0  0  0  0  0  0  0  0  0  0  0  0
    1.4260   24.0540    9.0800 H   0  0  0  0  0  0  0  0  0  0  0  0
    0.8237   29.7306    9.5995 H   0  0  0  0  0  0  0  0  0  0  0  0
    0.4717   32.1473   10.0741 H   0  0  0  0  0  0  0  0  0  0  0  0
  1  2  1  0
  2  3  2  0
  3  4  1  0
  4  5  2  0
  5  6  1  0
  6  7  1  0
  7  8  2  0
  8  9  1  0
  9 10  2  0
 10 11  1  0
 11 12  2  0
 11 13  1  0
 10 14  1  0
 14 15  1  0
 15 16  2  0
 15 17  1  0
 17 18  1  0
 18 19  2  0
 19 20  1  0
 20 21  2  0
 21 22  1  0
 21 23  1  0
 23 24  1  0
 24 25  2  0
 24 26  1  0
 23 27  2  0
 14 28  1  0
 28 29  1  0
 29 30  2  0
 29 31  1  0
  5 32  1  0
 32 33  2  0
 33  2  1  0
 13  7  1  0
 27 18  1  0
 31  9  1  0
  1 34  1  0
  1 35  1  0
  1 36  1  0
  3 37  1  0
  4 38  1  0
  6 39  1  0
 13 40  1  0
 14 41  1  1
 17 42  1  0
 19 43  1  0
 20 44  1  0
 22 45  1  0
 22 46  1  0
 22 47  1  0
 27 48  1  0
 28 49  1  0
 28 50  1  0
 31 51  1  0
 32 52  1  0
 33 53  1  0
M  CHG  2  24   1  26  -1
M  END
>  <vina_affinity>  (1) 
-9.551

$$$$
dec_C22536072
     RDKit          3D

 54 58  0  0  0  0  0  0  0  0999 V2000
    3.3550   20.2960   14.0600 C   0  0  0  0  0  0  0  0  0  0  0  0
    3.0280   21.2860   13.0860 O   0  0  0  0  0  0  0  0  0  0  0  0
    1.9360   20.9410   12.3330 C   0  0  0  0  0  0  0  0  0  0  0  0
    1.9880   19.8750   11.4300 C   0  0  0  0  0  0  0  0  0  0  0  0
    0.8680   19.5430   10.6710 C   0  0  0  0  0  0  0  0  0  0  0  0
   -0.3060   20.2790   10.8070 C   0  0  0  0  0  0  0  0  0  0  0  0
   -0.3540   21.3590   11.6900 C   0  0  0  0  0  0  0  0  0  0  0  0
    0.7750   21.7220   12.4520 C   0  0  0  0  0  0  0  0  0  0  0  0
    0.7270   22.8950   13.4300 C   0  0  1  0  0  0  0  0  0  0  0  0
    0.3350   24.2140   12.7710 C   0  0  0  0  0  0  0  0  0  0  0  0
   -0.8360   24.8330   13.0460 C   0  0  0  0  0  0  0  0  0  0  0  0
   -1.2440   26.1420   12.4100 C   0  0  0  0  0  0  0  0  0  0  0  0
   -0.0460   26.9210   11.8450 C   0  0  2  0  0  0  0  0  0  0  0  0
   -0.4920   28.1580   11.0880 C   0  0  0  0  0  0  0  0  0  0  0  0
   -1.8420   28.5350   11.1070 C   0  0  0  0  0  0  0  0  0  0  0  0
   -2.2790   29.6660   10.4130 C   0  0  0  0  0  0  0  0  0  0  0  0
   -1.3770   30.4400    9.6770 C   0  0  0  0  0  0  0  0  0  0  0  0
   -1.8390   31.6740    8.9610 C   0  0  0  0  0  0  0  0  0  0  0  0
   -0.0270   30.0770    9.6650 C   0  0  0  0  0  0  0  0  0  0  0  0
    0.4100   28.9450   10.3590 C   0  0  0  0  0  0  0  0  0  0  0  0
    0.8370   26.0050   10.9970 C   0  0  0  0  0  0  0  0  0  0  0  0
    1.2970   24.8230   11.8170 C   0  0  0  0  0  0  0  0  0  0  0  0
    2.4220   24.3510   11.6810 O   0  0  0  0  0  0  0  0  0  0  0  0
   -1.7090   24.2840   13.9740 N   0  0  0  0  0  0  0  0  0  0  0  0
   -1.3830   23.2280   14.7440 C   0  0  0  0  0  0  0  0  0  0  0  0
   -2.0030   22.6900   15.7610 N   0  0  0  0  0  0  0  0  0  0  0  0
   -1.1360   21.6780   16.1730 C   0  0  0  0  0  0  0  0  0  0  0  0
   -1.4390   20.7800   17.3530 C   0  0  0  0  0  0  0  0  0  0  0  0
   -1.4890   19.4660   16.9970 F   0  0  0  0  0  0  0  0  0  0  0  0
   -0.4990   20.8750   18.3360 F   0  0  0  0  0  0  0  0  0  0  0  0
   -2.6330   21.0670   17.9440 F   0  0  0  0  0  0  0  0  0  0  0  0
    0.0000   21.6010   15.4420 N   0  0  0  0  0  0  0  0  0  0  0  0
   -0.2070   22.5650   14.5190 N   0  0  0  0  0  0  0  0  0  0  0  0
    3.2170   20.7138   15.0681 H   0  0  0  0  0  0  0  0  0  0  0  0
    2.6972   19.4238   13.9314 H   0  0  0  0  0  0  0  0  0  0  0  0
    4.4029   19.9871   13.9314 H   0  0  0  0  0  0  0  0  0  0  0  0
    2.9167   19.2962   11.3184 H   0  0  0  0  0  0  0  0  0  0  0  0
    0.9111   18.7004    9.9651 H   0  0  0  0  0  0  0  0  0  0  0  0
   -1.1955   20.0094   10.2187 H   0  0  0  0  0  0  0  0  0  0  0  0
   -1.2857   21.9347   11.7926 H   0  0  0  0  0  0  0  0  0  0  0  0
    1.7434   23.0455   13.8227 H   0  0  0  0  0  0  0  0  0  0  0  0
   -1.9464   25.9318   11.5900 H   0  0  0  0  0  0  0  0  0  0  0  0
   -1.7076   26.7626   13.1910 H   0  0  0  0  0  0  0  0  0  0  0  0
    0.5637   27.2784   12.6879 H   0  0  0  0  0  0  0  0  0  0  0  0
   -2.5662   27.9329   11.6753 H   0  0  0  0  0  0  0  0  0  0  0  0
   -3.3413   29.9498   10.4459 H   0  0  0  0  0  0  0  0  0  0  0  0
   -2.1256   32.4394    9.6972 H   0  0  0  0  0  0  0  0  0  0  0  0
   -1.0240   32.0588    8.3303 H   0  0  0  0  0  0  0  0  0  0  0  0
   -2.7063   31.4289    8.3303 H   0  0  0  0  0  0  0  0  0  0  0  0
    0.6971   30.6870    9.1050 H   0  0  0  0  0  0  0  0  0  0  0  0
    1.4744   28.6686   10.3327 H   0  0  0  0  0  0  0  0  0  0  0  0
    0.2621   25.6453   10.1309 H   0  0  0  0  0  0  0  0  0  0  0  0
    1.7166   26.5695   10.6540 H   0  0  0  0  0  0  0  0  0  0  0  0
   -2.5470   24.8130   14.2070 H   0  0  0  0  0  0  0  0  0  0  0  0
  1  2  1  0
  2  3  1  0
  3  4  2  0
  4  5  1  0
  5  6  2  0
  6  7  1  0
  7  8  2  0
  8  9  1  0
  9 10  1  0
 10 11  2  0
 11 12  1  0
 12 13  1  0
 13 14  1  0
 14 15  2  0
 15 16  1  0
 16 17  2  0
 17 18  1  0
 17 19  1  0
 19 20  2  0
 13 21  1  0
 21 22  1  0
 22 23  2  0
 11 24  1  0
 24 25  1  0
 25 26  2  0
 26 27  1  0
 27 28  1  0
 28 29  1  0
 28 30  1  0
 28 31  1  0
 27 32  2  0
 32 33  1  0
  8  3  1  0
 33  9  1  0
 22 10  1  0
 33 25  1  0
 20 14  1  0
  1 34  1  0
  1 35  1  0
  1 36  1  0
  4 37  1  0
  5 38  1  0
  6 39  1  0
  7 40  1  0
  9 41  1  1
 12 42  1  0
 12 43  1  0
 13 44  1  1
 15 45  1  0
 16 46  1  0
 18 47  1  0
 18 48  1  0
 18 49  1  0
 19 50  1  0
 20 51  1  0
 21 52  1  0
 21 53  1  0
 24 54  1  0
M  END
>  <vina_affinity>  (1) 
-9.185

$$$$
dec_C20804160
     RDKit          3D

 49 52  0  0  0  0  0  0  0  0999 V2000
    2.3380   29.3040    8.5860 C   0  0  0  0  0  0  0  0  0  0  0  0
    2.6190   28.1280    9.3360 O   0  0  0  0  0  0  0  0  0  0  0  0
    3.5580   27.2660    8.8200 C   0  0  0  0  0  0  0  0  0  0  0  0
    4.7130   27.6570    8.1380 C   0  0  0  0  0  0  0  0  0  0  0  0
    5.5940   26.6900    7.6490 C   0  0  0  0  0  0  0  0  0  0  0  0
    5.3220   25.3360    7.8360 C   0  0  0  0  0  0  0  0  0  0  0  0
    4.1670   24.9370    8.5120 C   0  0  0  0  0  0  0  0  0  0  0  0
    3.2810   25.8940    9.0060 C   0  0  0  0  0  0  0  0  0  0  0  0
    2.0960   25.5820    9.7080 N   0  0  0  0  0  0  0  0  0  0  0  0
    1.9490   25.1930   11.0220 C   0  0  0  0  0  0  0  0  0  0  0  0
    2.8560   25.0350   11.8340 O   0  0  0  0  0  0  0  0  0  0  0  0
    0.4930   25.0190   11.4300 C   0  0  1  0  0  0  0  0  0  0  0  0
    0.2890   23.6620   12.1400 C   0  0  2  0  0  0  0  0  0  0  0  0
    0.5190   22.4830   11.1910 C   0  0  0  0  0  0  0  0  0  0  0  0
   -1.0910   23.5800   12.6290 N   0  0  0  0  0  0  0  0  0  0  0  0
   -1.5600   24.6210   13.3470 C   0  0  0  0  0  0  0  0  0  0  0  0
   -2.5140   24.6500   14.2390 N   0  0  0  0  0  0  0  0  0  0  0  0
   -2.4860   25.9470   14.6750 C   0  0  0  0  0  0  0  0  0  0  0  0
   -1.5600   26.7280   14.1100 N   0  0  0  0  0  0  0  0  0  0  0  0
   -1.0170   25.8710   13.2210 N   0  0  0  0  0  0  0  0  0  0  0  0
    0.1220   26.1970   12.3710 C   0  0  2  0  0  0  0  0  0  0  0  0
   -0.1320   27.4810   11.5810 C   0  0  0  0  0  0  0  0  0  0  0  0
    0.3540   28.7240   12.0190 C   0  0  0  0  0  0  0  0  0  0  0  0
    0.0510   29.8920   11.3170 C   0  0  0  0  0  0  0  0  0  0  0  0
   -0.7320   29.8230   10.1710 C   0  0  0  0  0  0  0  0  0  0  0  0
   -1.0100   30.9880    9.5190 O   0  0  0  0  0  0  0  0  0  0  0  0
   -1.2150   28.6050    9.7110 C   0  0  0  0  0  0  0  0  0  0  0  0
   -0.9160   27.4360   10.4140 C   0  0  0  0  0  0  0  0  0  0  0  0
    2.1385   30.1388    9.2740 H   0  0  0  0  0  0  0  0  0  0  0  0
    3.2027   29.5499    7.9521 H   0  0  0  0  0  0  0  0  0  0  0  0
    1.4556   29.1325    7.9521 H   0  0  0  0  0  0  0  0  0  0  0  0
    4.9281   28.7251    7.9864 H   0  0  0  0  0  0  0  0  0  0  0  0
    6.5050   26.9978    7.1148 H   0  0  0  0  0  0  0  0  0  0  0  0
    6.0199   24.5786    7.4496 H   0  0  0  0  0  0  0  0  0  0  0  0
    3.9559   23.8670    8.6549 H   0  0  0  0  0  0  0  0  0  0  0  0
    1.2610   25.7330    9.1440 H   0  0  0  0  0  0  0  0  0  0  0  0
   -0.1580   25.0249   10.5434 H   0  0  0  0  0  0  0  0  0  0  0  0
    1.0162   23.6044   12.9634 H   0  0  0  0  0  0  0  0  0  0  0  0
    0.6972   21.5696   11.7775 H   0  0  0  0  0  0  0  0  0  0  0  0
   -0.3690   22.3441   10.5568 H   0  0  0  0  0  0  0  0  0  0  0  0
    1.3941   22.6881   10.5568 H   0  0  0  0  0  0  0  0  0  0  0  0
   -1.3740   22.6680   12.9840 H   0  0  0  0  0  0  0  0  0  0  0  0
   -3.1806   26.3224   15.4409 H   0  0  0  0  0  0  0  0  0  0  0  0
    0.9859   26.3707   13.0294 H   0  0  0  0  0  0  0  0  0  0  0  0
    0.9787   28.7775   12.9228 H   0  0  0  0  0  0  0  0  0  0  0  0
    0.4303   30.8625   11.6694 H   0  0  0  0  0  0  0  0  0  0  0  0
   -1.2490   31.6580   10.1800 H   0  0  0  0  0  0  0  0  0  0  0  0
   -1.8288   28.5613    8.7992 H   0  0  0  0  0  0  0  0  0  0  0  0
   -1.2975   26.4701   10.0514 H   0  0  0  0  0  0  0  0  0  0  0  0
  1  2  1  0
  2  3  1  0
  3  4  2  0
  4  5  1  0
  5  6  2  0
  6  7  1  0
  7  8  2  0
  8  9  1  0
  9 10  1  0
 10 11  2  0
 10 12  1  0
 12 13  1  0
 13 14  1  0
 13 15  1  0
 15 16  1  0
 16 17  2  0
 17 18  1  0
 18 19  2  0
 19 20  1  0
 20 21  1  0
 21 22  1  0
 22 23  2  0
 23 24  1  0
 24 25  2  0
 25 26  1  0
 25 27  1  0
 27 28  2  0
  8  3  1  0
 21 12  1  0
 28 22  1  0
 20 16  1  0
  1 29  1  0
  1 30  1  0
  1 31  1  0
  4 32  1  0
  5 33  1  0
  6 34  1  0
  7 35  1  0
  9 36  1  0
 12 37  1  6
 13 38  1  1
 14 39  1  0
 14 40  1  0
 14 41  1  0
 15 42  1  0
 18 43  1  0
 21 44  1  1
 23 45  1  0
 24 46  1  0
 26 47  1  0
 27 48  1  0
 28 49  1  0
M  END
>  <vina_affinity>  (1) 
-7.578

$$$$
dec_C04848572
     RDKit          3D

 62 67  0  0  0  0  0  0  0  0999 V2000
   -3.1030   20.6870   16.4460 C   0  0  0  0  0  0  0  0  0  0  0  0
   -2.2640   21.5250   15.5300 C   0  0  0  0  0  0  0  0  0  0  0  0
   -2.3130   22.8560   15.7100 N   0  0  0  0  0  0  0  0  0  0  0  0
   -1.5690   23.6770   14.9340 C   0  0  0  0  0  0  0  0  0  0  0  0
   -1.6350   25.0610   15.1430 N   0  0  0  0  0  0  0  0  0  0  0  0
   -2.9850   25.6170   15.2510 C   0  0  0  0  0  0  0  0  0  0  0  0
   -3.5380   25.9460   13.8550 C   0  0  0  0  0  0  0  0  0  0  0  0
   -2.6090   26.7100   13.0400 N   0  0  0  0  0  0  0  0  0  0  0  0
   -3.0380   27.4410   11.9540 C   0  0  0  0  0  0  0  0  0  0  0  0
   -4.2110   27.4430   11.5940 O   0  0  0  0  0  0  0  0  0  0  0  0
   -1.9450   28.2530   11.2380 C   0  0  2  0  0  0  0  0  0  0  0  0
   -2.5880   29.4330   10.4620 C   0  0  0  0  0  0  0  0  0  0  0  0
   -1.5150   30.2620    9.7380 C   0  0  1  0  0  0  0  0  0  0  0  0
   -0.5260   30.8200   10.7740 C   0  0  0  0  0  0  0  0  0  0  0  0
    0.1400   29.6660   11.5390 C   0  0  2  0  0  0  0  0  0  0  0  0
    0.8870   28.7620   10.5430 C   0  0  0  0  0  0  0  0  0  0  0  0
   -0.0960   28.1950    9.5030 C   0  0  2  0  0  0  0  0  0  0  0  0
   -0.7610   29.3580    8.7490 C   0  0  0  0  0  0  0  0  0  0  0  0
   -1.1760   27.3710   10.2250 C   0  0  0  0  0  0  0  0  0  0  0  0
   -0.9410   28.8400   12.2590 C   0  0  0  0  0  0  0  0  0  0  0  0
   -0.7520   23.0970   13.9350 C   0  0  0  0  0  0  0  0  0  0  0  0
    0.1260   23.6270   12.9070 C   0  0  0  0  0  0  0  0  0  0  0  0
    0.6770   22.6170   12.1360 C   0  0  0  0  0  0  0  0  0  0  0  0
    0.2090   21.0670   12.6470 S   0  0  0  0  0  0  0  0  0  0  0  0
   -0.7880   21.7100   13.8690 C   0  0  0  0  0  0  0  0  0  0  0  0
   -1.5050   20.8810   14.6430 N   0  0  0  0  0  0  0  0  0  0  0  0
    1.6040   22.8100   10.9760 C   0  0  0  0  0  0  0  0  0  0  0  0
    1.5140   24.2520   10.4610 C   0  0  0  0  0  0  0  0  0  0  0  0
    1.5670   25.2590   11.6150 C   0  0  0  0  0  0  0  0  0  0  0  0
    0.4000   25.0730   12.5990 C   0  0  0  0  0  0  0  0  0  0  0  0
   -2.8597   20.9300   17.4909 H   0  0  0  0  0  0  0  0  0  0  0  0
   -4.1673   20.8934   16.2598 H   0  0  0  0  0  0  0  0  0  0  0  0
   -2.8979   19.6225   16.2598 H   0  0  0  0  0  0  0  0  0  0  0  0
   -1.0110   25.3360   15.8900 H   0  0  0  0  0  0  0  0  0  0  0  0
   -3.6426   24.8820   15.7381 H   0  0  0  0  0  0  0  0  0  0  0  0
   -2.9458   26.5402   15.8478 H   0  0  0  0  0  0  0  0  0  0  0  0
   -3.7644   25.0025   13.3367 H   0  0  0  0  0  0  0  0  0  0  0  0
   -4.4368   26.5645   13.9954 H   0  0  0  0  0  0  0  0  0  0  0  0
   -1.6570   26.8090   13.3670 H   0  0  0  0  0  0  0  0  0  0  0  0
   -3.2957   29.0336    9.7207 H   0  0  0  0  0  0  0  0  0  0  0  0
   -3.1099   30.0831   11.1796 H   0  0  0  0  0  0  0  0  0  0  0  0
   -1.9883   31.0921    9.1931 H   0  0  0  0  0  0  0  0  0  0  0  0
    0.2468   31.4098   10.2592 H   0  0  0  0  0  0  0  0  0  0  0  0
   -1.0702   31.4585   11.4855 H   0  0  0  0  0  0  0  0  0  0  0  0
    0.8479   30.0721   12.2765 H   0  0  0  0  0  0  0  0  0  0  0  0
    1.6618   29.3496   10.0288 H   0  0  0  0  0  0  0  0  0  0  0  0
    1.3512   27.9289   11.0912 H   0  0  0  0  0  0  0  0  0  0  0  0
    0.4438   27.5537    8.7907 H   0  0  0  0  0  0  0  0  0  0  0  0
    0.0116   29.9470    8.2331 H   0  0  0  0  0  0  0  0  0  0  0  0
   -1.4729   28.9527    8.0148 H   0  0  0  0  0  0  0  0  0  0  0  0
   -1.8831   26.9719    9.4829 H   0  0  0  0  0  0  0  0  0  0  0  0
   -0.6904   26.5469   10.7682 H   0  0  0  0  0  0  0  0  0  0  0  0
   -0.4612   28.0170   12.8089 H   0  0  0  0  0  0  0  0  0  0  0  0
   -1.4844   29.4956   12.9553 H   0  0  0  0  0  0  0  0  0  0  0  0
    2.6355   22.6023   11.2966 H   0  0  0  0  0  0  0  0  0  0  0  0
    1.3163   22.1214   10.1679 H   0  0  0  0  0  0  0  0  0  0  0  0
    2.3565   24.4426    9.7799 H   0  0  0  0  0  0  0  0  0  0  0  0
    0.5548   24.3745    9.9367 H   0  0  0  0  0  0  0  0  0  0  0  0
    2.5140   25.1260   12.1586 H   0  0  0  0  0  0  0  0  0  0  0  0
    1.4912   26.2694   11.1867 H   0  0  0  0  0  0  0  0  0  0  0  0
    0.6445   25.5925   13.5373 H   0  0  0  0  0  0  0  0  0  0  0  0
   -0.5023   25.4891   12.1270 H   0  0  0  0  0  0  0  0  0  0  0  0
  1  2  1  0
  2  3  2  0
  3  4  1  0
  4  5  1  0
  5  6  1  0
  6  7  1  0
  7  8  1  0
  8  9  1  0
  9 10  2  0
 11  9  1  1
 11 12  1  0
 12 13  1  0
 13 14  1  0
 14 15  1  0
 15 16  1  0
 16 17  1  0
 17 18  1  0
 17 19  1  0
 15 20  1  0
  4 21  2  0
 21 22  1  0
 22 23  2  0
 23 24  1  0
 24 25  1  0
 25 26  2  0
 23 27  1  0
 27 28  1  0
 28 29  1  0
 29 30  1  0
 26  2  1  0
 19 11  1  0
 25 21  1  0
 20 11  1  0
 30 22  1  0
 18 13  1  0
  1 31  1  0
  1 32  1  0
  1 33  1  0
  5 34  1  0
  6 35  1  0
  6 36  1  0
  7 37  1  0
  7 38  1  0
  8 39  1  0
 12 40  1  0
 12 41  1  0
 13 42  1  6
 14 43  1  0
 14 44  1  0
 15 45  1  1
 16 46  1  0
 16 47  1  0
 17 48  1  6
 18 49  1  0
 18 50  1  0
 19 51  1  0
 19 52  1  0
 20 53  1  0
 20 54  1  0
 27 55  1  0
 27 56  1  0
 28 57  1  0
 28 58  1  0
 29 59  1  0
 29 60  1  0
 30 61  1  0
 30 62  1  0
M  END
>  <vina_affinity>  (1) 
-8.626

$$$$
dec_C67581267
     RDKit          3D

 43 43  0  0  0  0  0  0  0  0999 V2000
   -0.7700   33.0670    9.0370 C   0  0  0  0  0  0  0  0  0  0  0  0
   -1.6140   32.2910   10.0490 C   0  0  0  0  0  0  0  0  0  0  0  0
   -2.2600   33.2630   11.0380 C   0  0  0  0  0  0  0  0  0  0  0  0
   -2.6540   31.4290    9.3100 C   0  0  0  0  0  0  0  0  0  0  0  0
   -3.0680   30.1770   10.0850 C   0  0  0  0  0  0  0  0  0  0  0  0
   -2.1830   29.0590    9.8160 N   0  0  0  0  0  0  0  0  0  0  0  0
   -1.4760   28.4550   10.8300 C   0  0  0  0  0  0  0  0  0  0  0  0
   -1.5750   28.8410   11.9900 O   0  0  0  0  0  0  0  0  0  0  0  0
   -0.6490   27.4170   10.4200 N   0  0  0  0  0  0  0  0  0  0  0  0
   -1.1400   26.2370    9.7120 C   0  0  0  0  0  0  0  0  0  0  0  0
    0.7590   27.3470   10.8630 C   0  0  1  0  0  0  0  0  0  0  0  0
    1.2260   25.9670   11.3480 C   0  0  0  0  0  0  0  0  0  0  0  0
    1.7260   27.9820    9.8720 C   0  0  0  0  0  0  0  0  0  0  0  0
    1.3820   29.1220    9.1280 C   0  0  0  0  0  0  0  0  0  0  0  0
    2.2840   29.6920    8.2280 C   0  0  0  0  0  0  0  0  0  0  0  0
    3.5470   29.1310    8.0560 C   0  0  0  0  0  0  0  0  0  0  0  0
    3.8980   28.0020    8.7850 C   0  0  0  0  0  0  0  0  0  0  0  0
    5.1440   27.4820    8.5870 O   0  0  0  0  0  0  0  0  0  0  0  0
    3.0060   27.4260    9.6880 C   0  0  0  0  0  0  0  0  0  0  0  0
   -0.0624   33.7176    9.5719 H   0  0  0  0  0  0  0  0  0  0  0  0
   -0.2124   32.3596    8.4056 H   0  0  0  0  0  0  0  0  0  0  0  0
   -1.4281   33.6820    8.4056 H   0  0  0  0  0  0  0  0  0  0  0  0
   -0.9751   31.6086   10.6287 H   0  0  0  0  0  0  0  0  0  0  0  0
   -2.0437   32.9376   12.0663 H   0  0  0  0  0  0  0  0  0  0  0  0
   -1.8524   34.2723   10.8794 H   0  0  0  0  0  0  0  0  0  0  0  0
   -3.3484   33.2780   10.8794 H   0  0  0  0  0  0  0  0  0  0  0  0
   -3.5506   32.0409    9.1319 H   0  0  0  0  0  0  0  0  0  0  0  0
   -2.1878   31.0908    8.3728 H   0  0  0  0  0  0  0  0  0  0  0  0
   -3.0424   30.4002   11.1618 H   0  0  0  0  0  0  0  0  0  0  0  0
   -4.0816   29.8956    9.7633 H   0  0  0  0  0  0  0  0  0  0  0  0
   -1.7220   29.0680    8.9210 H   0  0  0  0  0  0  0  0  0  0  0  0
   -1.4563   25.4769   10.4415 H   0  0  0  0  0  0  0  0  0  0  0  0
   -1.9959   26.5179    9.0807 H   0  0  0  0  0  0  0  0  0  0  0  0
   -0.3375   25.8278    9.0807 H   0  0  0  0  0  0  0  0  0  0  0  0
    0.7788   27.9684   11.7704 H   0  0  0  0  0  0  0  0  0  0  0  0
    1.2325   25.9478   12.4478 H   0  0  0  0  0  0  0  0  0  0  0  0
    0.5393   25.1944   10.9718 H   0  0  0  0  0  0  0  0  0  0  0  0
    2.2408   25.7702   10.9718 H   0  0  0  0  0  0  0  0  0  0  0  0
    0.3868   29.5727    9.2563 H   0  0  0  0  0  0  0  0  0  0  0  0
    1.9969   30.5853    7.6540 H   0  0  0  0  0  0  0  0  0  0  0  0
    4.2608   29.5783    7.3486 H   0  0  0  0  0  0  0  0  0  0  0  0
    5.5930   28.0050    7.9030 H   0  0  0  0  0  0  0  0  0  0  0  0
    3.3033   26.5339   10.2588 H   0  0  0  0  0  0  0  0  0  0  0  0
  1  2  1  0
  2  3  1  0
  2  4  1  0
  4  5  1  0
  5  6  1  0
  6  7  1  0
  7  8  2  0
  7  9  1  0
  9 10  1  0
  9 11  1  0
 11 12  1  0
 11 13  1  0
 13 14  2  0
 14 15  1  0
 15 16  2  0
 16 17  1  0
 17 18  1  0
 17 19  2  0
 19 13  1  0
  1 20  1  0
  1 21  1  0
  1 22  1  0
  2 23  1  0
  3 24  1  0
  3 25  1  0
  3 26  1  0
  4 27  1  0
  4 28  1  0
  5 29  1  0
  5 30  1  0
  6 31  1  0
 10 32  1  0
 10 33  1  0
 10 34  1  0
 11 35  1  1
 12 36  1  0
 12 37  1  0
 12 38  1  0
 14 39  1  0
 15 40  1  0
 16 41  1  0
 18 42  1  0
 19 43  1  0
M  END
>  <vina_affinity>  (1) 
-7.003

$$$$
dec_C42958955
     RDKit          3D

 41 43  0  0  0  0  0  0  0  0999 V2000
   -3.7590   27.1160   12.0240 N   0  0  0  0  0  0  0  0  0  0  0  0
   -2.9370   28.1990   11.4070 C   0  0  0  0  0  0  0  0  0  0  0  0
   -1.4630   27.7870   11.1860 C   0  0  2  0  0  0  0  0  0  0  0  0
   -0.6020   27.6470   12.8080 S   0  0  0  0  0  0  0  0  0  0  0  0
   -0.7020   25.9350   13.0520 C   0  0  0  0  0  0  0  0  0  0  0  0
   -1.6510   25.3320   13.7240 N   0  0  0  0  0  0  0  0  0  0  0  0
   -1.3720   23.9930   13.7250 N   0  0  0  0  0  0  0  0  0  0  0  0
   -0.2490   23.7970   13.0590 C   0  0  0  0  0  0  0  0  0  0  0  0
    0.2040   25.0150   12.6030 N   0  0  0  0  0  0  0  0  0  0  0  0
    1.3820   25.2230   11.7970 C   0  0  0  0  0  0  0  0  0  0  0  0
    1.4230   24.3490   10.5450 C   0  0  0  0  0  0  0  0  0  0  0  0
    1.8210   22.8850   10.7700 C   0  0  0  0  0  0  0  0  0  0  0  0
    0.7460   22.0270   11.4580 C   0  0  0  0  0  0  0  0  0  0  0  0
    0.4040   22.4660   12.8830 C   0  0  0  0  0  0  0  0  0  0  0  0
   -0.7750   28.7250   10.2010 C   0  0  0  0  0  0  0  0  0  0  0  0
    0.5900   28.5210    9.9270 C   0  0  0  0  0  0  0  0  0  0  0  0
    1.2670   29.3200    9.0010 C   0  0  0  0  0  0  0  0  0  0  0  0
    0.5880   30.3350    8.3380 C   0  0  0  0  0  0  0  0  0  0  0  0
    1.4990   31.4170    7.0850 Br  0  0  0  0  0  0  0  0  0  0  0  0
   -0.7610   30.5620    8.5970 C   0  0  0  0  0  0  0  0  0  0  0  0
   -1.4390   29.7630    9.5220 C   0  0  0  0  0  0  0  0  0  0  0  0
   -4.4030   27.5020   12.7290 H   0  0  0  0  0  0  0  0  0  0  0  0
   -3.1680   26.4130   12.4870 H   0  0  0  0  0  0  0  0  0  0  0  0
   -4.3220   26.6270   11.3140 H   0  0  0  0  0  0  0  0  0  0  0  0
   -3.3772   28.4620   10.4338 H   0  0  0  0  0  0  0  0  0  0  0  0
   -2.9398   29.0512   12.1026 H   0  0  0  0  0  0  0  0  0  0  0  0
   -1.4206   26.7916   10.7198 H   0  0  0  0  0  0  0  0  0  0  0  0
    1.4103   26.2780   11.4868 H   0  0  0  0  0  0  0  0  0  0  0  0
    2.2501   24.9473   12.4138 H   0  0  0  0  0  0  0  0  0  0  0  0
    0.4211   24.3612   10.0911 H   0  0  0  0  0  0  0  0  0  0  0  0
    2.2074   24.7785    9.9045 H   0  0  0  0  0  0  0  0  0  0  0  0
    2.0436   22.4357    9.7909 H   0  0  0  0  0  0  0  0  0  0  0  0
    2.6885   22.8985   11.4462 H   0  0  0  0  0  0  0  0  0  0  0  0
   -0.1717   22.0753   10.8535 H   0  0  0  0  0  0  0  0  0  0  0  0
    1.1569   21.0094   11.5329 H   0  0  0  0  0  0  0  0  0  0  0  0
   -0.2723   21.7091   13.3070 H   0  0  0  0  0  0  0  0  0  0  0  0
    1.3774   22.5641   13.3859 H   0  0  0  0  0  0  0  0  0  0  0  0
    1.1331   27.7199   10.4498 H   0  0  0  0  0  0  0  0  0  0  0  0
    2.3339   29.1458    8.7978 H   0  0  0  0  0  0  0  0  0  0  0  0
   -1.2932   31.3701    8.0737 H   0  0  0  0  0  0  0  0  0  0  0  0
   -2.5048   29.9480    9.7215 H   0  0  0  0  0  0  0  0  0  0  0  0
  1  2  1  0
  2  3  1  0
  3  4  1  0
  4  5  1  0
  5  6  2  0
  6  7  1  0
  7  8  2  0
  8  9  1  0
  9 10  1  0
 10 11  1  0
 11 12  1  0
 12 13  1  0
 13 14  1  0
  3 15  1  0
 15 16  2  0
 16 17  1  0
 17 18  2  0
 18 19  1  0
 18 20  1  0
 20 21  2  0
  9  5  1  0
 21 15  1  0
 14  8  1  0
  1 22  1  0
  1 23  1  0
  1 24  1  0
  2 25  1  0
  2 26  1  0
  3 27  1  6
 10 28  1  0
 10 29  1  0
 11 30  1  0
 11 31  1  0
 12 32  1  0
 12 33  1  0
 13 34  1  0
 13 35  1  0
 14 36  1  0
 14 37  1  0
 16 38  1  0
 17 39  1  0
 20 40  1  0
 21 41  1  0
M  CHG  1   1   1
M  END
>  <vina_affinity>  (1) 
-5.470

$$$$
dec_C22001321
     RDKit          3D

 57 59  0  0  0  0  0  0  0  0999 V2000
    1.5470   30.0770    8.0320 C   0  0  0  0  0  0  0  0  0  0  0  0
    0.2080   29.6440    8.6280 C   0  0  2  0  0  0  0  0  0  0  0  0
   -0.8060   30.8030    8.5890 C   0  0  0  0  0  0  0  0  0  0  0  0
   -1.9730   30.6940    9.6080 C   0  0  0  0  0  0  0  0  0  0  0  0
   -3.2720   31.1930    8.9380 C   0  0  0  0  0  0  0  0  0  0  0  0
   -1.7060   31.6160   10.8140 C   0  0  0  0  0  0  0  0  0  0  0  0
   -2.1890   29.2320   10.0660 C   0  0  0  0  0  0  0  0  0  0  0  0
   -0.9290   28.5140   10.5750 C   0  0  2  0  0  0  0  0  0  0  0  0
    0.3890   29.0960   10.0440 C   0  0  0  0  0  0  0  0  0  0  0  0
   -1.0160   27.0920   10.2630 N   0  0  0  0  0  0  0  0  0  0  0  0
   -0.8330   26.3090   11.3770 C   0  0  0  0  0  0  0  0  0  0  0  0
   -0.6150   25.1090   11.3440 O   0  0  0  0  0  0  0  0  0  0  0  0
   -0.8440   27.1050   12.4750 N   0  0  0  0  0  0  0  0  0  0  0  0
   -0.5070   26.6270   13.7990 C   0  0  0  0  0  0  0  0  0  0  0  0
   -1.7450   26.4820   14.6810 C   0  0  0  0  0  0  0  0  0  0  0  0
   -1.8750   27.0700   15.7470 O   0  0  0  0  0  0  0  0  0  0  0  0
   -2.6630   25.6180   14.1580 O   0  0  0  0  0  0  0  0  0  0  0  0
   -3.9470   25.6150   14.7880 C   0  0  0  0  0  0  0  0  0  0  0  0
   -4.1210   24.4590   15.7760 C   0  0  0  0  0  0  0  0  0  0  0  0
   -4.5210   24.6760   16.9160 O   0  0  0  0  0  0  0  0  0  0  0  0
   -3.7090   23.2460   15.2420 N   0  0  0  0  0  0  0  0  0  0  0  0
   -3.7370   22.0020   15.8520 C   0  0  0  0  0  0  0  0  0  0  0  0
   -5.2070   21.2010   16.1550 S   0  0  0  0  0  0  0  0  0  0  0  0
   -4.4250   19.8480   16.8290 C   0  0  0  0  0  0  0  0  0  0  0  0
   -3.0580   19.9990   16.8250 C   0  0  0  0  0  0  0  0  0  0  0  0
   -2.6360   21.2540   16.2540 C   0  0  0  0  0  0  0  0  0  0  0  0
   -1.2560   21.7160   16.1200 C   0  0  0  0  0  0  0  0  0  0  0  0
   -0.3120   20.7320   16.0060 N   0  0  0  0  0  0  0  0  0  0  0  0
   -0.9280   22.8990   16.0880 O   0  0  0  0  0  0  0  0  0  0  0  0
   -0.8780   28.4210   12.1150 C   0  0  0  0  0  0  0  0  0  0  0  0
   -0.8060   29.3660   12.8890 O   0  0  0  0  0  0  0  0  0  0  0  0
    2.2531   30.3053    8.8440 H   0  0  0  0  0  0  0  0  0  0  0  0
    1.9522   29.2641    7.4115 H   0  0  0  0  0  0  0  0  0  0  0  0
    1.3995   30.9732    7.4115 H   0  0  0  0  0  0  0  0  0  0  0  0
   -0.1974   28.8275    8.0123 H   0  0  0  0  0  0  0  0  0  0  0  0
   -0.2627   31.7377    8.7922 H   0  0  0  0  0  0  0  0  0  0  0  0
   -1.2677   30.7717    7.5911 H   0  0  0  0  0  0  0  0  0  0  0  0
   -4.0004   31.4728    9.7134 H   0  0  0  0  0  0  0  0  0  0  0  0
   -3.0483   32.0692    8.3117 H   0  0  0  0  0  0  0  0  0  0  0  0
   -3.6925   30.3924    8.3117 H   0  0  0  0  0  0  0  0  0  0  0  0
   -1.8682   31.0559   11.7467 H   0  0  0  0  0  0  0  0  0  0  0  0
   -0.6669   31.9752   10.7780 H   0  0  0  0  0  0  0  0  0  0  0  0
   -2.3923   32.4749   10.7780 H   0  0  0  0  0  0  0  0  0  0  0  0
   -2.9305   29.2357   10.8785 H   0  0  0  0  0  0  0  0  0  0  0  0
   -2.5177   28.6777    9.1745 H   0  0  0  0  0  0  0  0  0  0  0  0
    0.7168   29.9103   10.7069 H   0  0  0  0  0  0  0  0  0  0  0  0
    1.1435   28.2959   10.0191 H   0  0  0  0  0  0  0  0  0  0  0  0
   -0.6750   26.7050    9.3890 H   0  0  0  0  0  0  0  0  0  0  0  0
   -0.0166   25.6464   13.7095 H   0  0  0  0  0  0  0  0  0  0  0  0
    0.1631   27.3625   14.2681 H   0  0  0  0  0  0  0  0  0  0  0  0
   -4.0742   26.5632   15.3308 H   0  0  0  0  0  0  0  0  0  0  0  0
   -4.7028   25.4919   13.9983 H   0  0  0  0  0  0  0  0  0  0  0  0
   -3.3340   23.2550   14.2950 H   0  0  0  0  0  0  0  0  0  0  0  0
   -4.9480   18.9626   17.2194 H   0  0  0  0  0  0  0  0  0  0  0  0
   -2.3610   19.2430   17.2157 H   0  0  0  0  0  0  0  0  0  0  0  0
    0.6120   21.0350   15.7330 H   0  0  0  0  0  0  0  0  0  0  0  0
   -0.5860   19.8060   15.7110 H   0  0  0  0  0  0  0  0  0  0  0  0
  1  2  1  0
  2  3  1  0
  3  4  1  0
  4  5  1  0
  4  6  1  0
  4  7  1  0
  7  8  1  0
  8  9  1  0
  8 10  1  6
 10 11  1  0
 11 12  2  0
 11 13  1  0
 13 14  1  0
 14 15  1  0
 15 16  2  0
 15 17  1  0
 17 18  1  0
 18 19  1  0
 19 20  2  0
 19 21  1  0
 21 22  1  0
 22 23  1  0
 23 24  1  0
 24 25  2  0
 25 26  1  0
 26 27  1  0
 27 28  1  0
 27 29  2  0
 13 30  1  0
 30 31  2  0
  9  2  1  0
 26 22  2  0
 30  8  1  0
  1 32  1  0
  1 33  1  0
  1 34  1  0
  2 35  1  6
  3 36  1  0
  3 37  1  0
  5 38  1  0
  5 39  1  0
  5 40  1  0
  6 41  1  0
  6 42  1  0
  6 43  1  0
  7 44  1  0
  7 45  1  0
  9 46  1  0
  9 47  1  0
 10 48  1  0
 14 49  1  0
 14 50  1  0
 18 51  1  0
 18 52  1  0
 21 53  1  0
 24 54  1  0
 25 55  1  0
 28 56  1  0
 28 57  1  0
M  END
>  <vina_affinity>  (1) 
-9.093

$$$$
dec_C36609067
     RDKit          3D

 60 61  0  0  0  0  0  0  0  0999 V2000
   -1.9360   31.8900   10.5830 C   0  0  0  0  0  0  0  0  0  0  0  0
   -2.1690   30.6020    9.7860 C   0  0  0  0  0  0  0  0  0  0  0  0
   -1.2000   30.5550    8.5880 C   0  0  0  0  0  0  0  0  0  0  0  0
   -3.6010   30.6710    9.1980 C   0  0  0  0  0  0  0  0  0  0  0  0
   -2.0970   29.3020   10.6500 C   0  0  0  0  0  0  0  0  0  0  0  0
   -0.7720   28.5290   10.9760 C   0  0  0  0  0  0  0  0  0  0  0  0
   -0.1340   27.9200    9.7210 C   0  0  0  0  0  0  0  0  0  0  0  0
    0.2370   29.4420   11.6950 C   0  0  0  0  0  0  0  0  0  0  0  0
   -1.1780   27.4470   11.9080 N   0  0  0  0  0  0  0  0  0  0  0  0
   -1.6970   26.2120   11.5550 C   0  0  0  0  0  0  0  0  0  0  0  0
   -1.8970   25.8770   10.3860 O   0  0  0  0  0  0  0  0  0  0  0  0
   -1.9040   25.2030   12.7320 C   0  0  2  0  0  0  0  0  0  0  0  0
   -2.3100   25.8300   14.0750 C   0  0  0  0  0  0  0  0  0  0  0  0
   -1.4470   26.5470   14.9220 C   0  0  0  0  0  0  0  0  0  0  0  0
   -0.1250   26.6940   14.6090 O   0  0  0  0  0  0  0  0  0  0  0  0
   -1.8960   27.1010   16.1260 C   0  0  0  0  0  0  0  0  0  0  0  0
   -3.2110   26.9160   16.5260 C   0  0  0  0  0  0  0  0  0  0  0  0
   -3.5980   27.4740   17.7080 O   0  0  0  0  0  0  0  0  0  0  0  0
   -4.0830   26.1640   15.7550 C   0  0  0  0  0  0  0  0  0  0  0  0
   -3.6210   25.6170   14.5550 C   0  0  0  0  0  0  0  0  0  0  0  0
   -4.4600   24.8090   13.8370 O   0  0  0  0  0  0  0  0  0  0  0  0
   -0.7460   24.2770   12.7110 N   0  0  0  0  0  0  0  0  0  0  0  0
    0.3590   24.6000   11.9340 C   0  0  0  0  0  0  0  0  0  0  0  0
    1.3070   25.3090   12.2660 O   0  0  0  0  0  0  0  0  0  0  0  0
   -0.7650   23.0910   13.5150 C   0  0  0  0  0  0  0  0  0  0  0  0
   -0.4060   23.1340   14.8720 C   0  0  0  0  0  0  0  0  0  0  0  0
   -0.4230   21.9800   15.6630 C   0  0  0  0  0  0  0  0  0  0  0  0
   -0.8010   20.7600   15.1110 C   0  0  0  0  0  0  0  0  0  0  0  0
   -1.1630   20.6960   13.7700 C   0  0  0  0  0  0  0  0  0  0  0  0
   -1.1430   21.8500   12.9790 C   0  0  0  0  0  0  0  0  0  0  0  0
   -1.9763   31.6674   11.6595 H   0  0  0  0  0  0  0  0  0  0  0  0
   -0.9484   32.3037   10.3308 H   0  0  0  0  0  0  0  0  0  0  0  0
   -2.7160   32.6234   10.3308 H   0  0  0  0  0  0  0  0  0  0  0  0
   -0.1645   30.5048    8.9557 H   0  0  0  0  0  0  0  0  0  0  0  0
   -1.4155   29.6663    7.9767 H   0  0  0  0  0  0  0  0  0  0  0  0
   -1.3285   31.4604    7.9767 H   0  0  0  0  0  0  0  0  0  0  0  0
   -4.3329   30.7063   10.0184 H   0  0  0  0  0  0  0  0  0  0  0  0
   -3.7001   31.5750    8.5791 H   0  0  0  0  0  0  0  0  0  0  0  0
   -3.7865   29.7808    8.5791 H   0  0  0  0  0  0  0  0  0  0  0  0
   -2.5319   29.5691   11.6244 H   0  0  0  0  0  0  0  0  0  0  0  0
   -2.5951   28.5836    9.9823 H   0  0  0  0  0  0  0  0  0  0  0  0
    0.6323   27.1886   10.0173 H   0  0  0  0  0  0  0  0  0  0  0  0
   -0.9085   27.4177    9.1228 H   0  0  0  0  0  0  0  0  0  0  0  0
    0.3318   28.7170    9.1228 H   0  0  0  0  0  0  0  0  0  0  0  0
    0.1181   29.3344   12.7833 H   0  0  0  0  0  0  0  0  0  0  0  0
    1.2596   29.1561   11.4078 H   0  0  0  0  0  0  0  0  0  0  0  0
    0.0544   30.4880   11.4078 H   0  0  0  0  0  0  0  0  0  0  0  0
   -0.6430   27.4030   12.7800 H   0  0  0  0  0  0  0  0  0  0  0  0
   -2.8133   24.6025   12.5818 H   0  0  0  0  0  0  0  0  0  0  0  0
   -0.0100   27.4860   14.0580 H   0  0  0  0  0  0  0  0  0  0  0  0
   -1.2063   27.6830   16.7549 H   0  0  0  0  0  0  0  0  0  0  0  0
   -3.8490   28.4000   17.5550 H   0  0  0  0  0  0  0  0  0  0  0  0
   -5.1205   26.0006   16.0818 H   0  0  0  0  0  0  0  0  0  0  0  0
   -4.1280   23.8960   13.8380 H   0  0  0  0  0  0  0  0  0  0  0  0
    0.3890   24.1786   10.9183 H   0  0  0  0  0  0  0  0  0  0  0  0
   -0.1060   24.0923   15.3212 H   0  0  0  0  0  0  0  0  0  0  0  0
   -0.1369   22.0374   16.7236 H   0  0  0  0  0  0  0  0  0  0  0  0
   -0.8134   19.8518   15.7316 H   0  0  0  0  0  0  0  0  0  0  0  0
   -1.4662   19.7348   13.3294 H   0  0  0  0  0  0  0  0  0  0  0  0
   -1.4284   21.7835   11.9188 H   0  0  0  0  0  0  0  0  0  0  0  0
  1  2  1  0
  2  3  1  0
  2  4  1  0
  2  5  1  0
  5  6  1  0
  6  7  1  0
  6  8  1  0
  6  9  1  0
  9 10  1  0
 10 11  2  0
 10 12  1  0
 12 13  1  0
 13 14  2  0
 14 15  1  0
 14 16  1  0
 16 17  2  0
 17 18  1  0
 17 19  1  0
 19 20  2  0
 20 21  1  0
 12 22  1  0
 22 23  1  0
 23 24  2  0
 22 25  1  0
 25 26  2  0
 26 27  1  0
 27 28  2  0
 28 29  1  0
 29 30  2  0
 20 13  1  0
 30 25  1  0
  1 31  1  0
  1 32  1  0
  1 33  1  0
  3 34  1  0
  3 35  1  0
  3 36  1  0
  4 37  1  0
  4 38  1  0
  4 39  1  0
  5 40  1  0
  5 41  1  0
  7 42  1  0
  7 43  1  0
  7 44  1  0
  8 45  1  0
  8 46  1  0
  8 47  1  0
  9 48  1  0
 12 49  1  6
 15 50  1  0
 16 51  1  0
 18 52  1  0
 19 53  1  0
 21 54  1  0
 23 55  1  0
 26 56  1  0
 27 57  1  0
 28 58  1  0
 29 59  1  0
 30 60  1  0
M  END
>  <vina_affinity>  (1) 
-6.795

$$$$
dec_C03640779
     RDKit          3D

 41 44  0  0  0  0  0  0  0  0999 V2000
   -2.2700   33.2360   11.2110 C   0  0  0  0  0  0  0  0  0  0  0  0
   -1.3570   32.8240   10.0670 C   0  0  0  0  0  0  0  0  0  0  0  0
   -2.1300   31.5660    9.0020 S   0  0  0  0  0  0  0  0  0  0  0  0
   -1.7050   30.0770    9.8690 C   0  0  0  0  0  0  0  0  0  0  0  0
   -2.6660   29.3580   10.4760 N   0  0  0  0  0  0  0  0  0  0  0  0
   -2.3290   28.2150   11.1540 N   0  0  0  0  0  0  0  0  0  0  0  0
   -1.0380   27.8160   11.2230 C   0  0  0  0  0  0  0  0  0  0  0  0
   -0.1080   28.6000   10.5570 C   0  0  0  0  0  0  0  0  0  0  0  0
   -0.4130   29.7330    9.8810 N   0  0  0  0  0  0  0  0  0  0  0  0
    1.2250   28.3170   10.5210 O   0  0  0  0  0  0  0  0  0  0  0  0
    1.4250   27.0080   10.0100 C   0  0  1  0  0  0  0  0  0  0  0  0
    2.7640   26.9920    9.2850 C   0  0  0  0  0  0  0  0  0  0  0  0
    3.4270   28.1930    8.9780 C   0  0  0  0  0  0  0  0  0  0  0  0
    4.6500   28.1800    8.3010 C   0  0  0  0  0  0  0  0  0  0  0  0
    5.2110   26.9650    7.9220 C   0  0  0  0  0  0  0  0  0  0  0  0
    6.4000   26.9080    7.2570 O   0  0  0  0  0  0  0  0  0  0  0  0
    4.5730   25.7660    8.2110 C   0  0  0  0  0  0  0  0  0  0  0  0
    3.3550   25.7780    8.8910 C   0  0  0  0  0  0  0  0  0  0  0  0
    1.4860   26.0560   11.0970 N   0  0  0  0  0  0  0  0  0  0  0  0
    0.3800   25.7840   11.9020 C   0  0  0  0  0  0  0  0  0  0  0  0
    0.5200   24.6650   12.7560 C   0  0  0  0  0  0  0  0  0  0  0  0
   -0.4680   24.2890   13.6630 C   0  0  0  0  0  0  0  0  0  0  0  0
   -1.6170   25.0510   13.7510 C   0  0  0  0  0  0  0  0  0  0  0  0
   -2.9740   24.5690   14.9760 Br  0  0  0  0  0  0  0  0  0  0  0  0
   -1.7700   26.1800   12.9500 C   0  0  0  0  0  0  0  0  0  0  0  0
   -0.7800   26.5900   12.0150 C   0  0  0  0  0  0  0  0  0  0  0  0
   -1.7790   33.0144   12.1700 H   0  0  0  0  0  0  0  0  0  0  0  0
   -2.4763   34.3145   11.1453 H   0  0  0  0  0  0  0  0  0  0  0  0
   -3.2152   32.6772   11.1453 H   0  0  0  0  0  0  0  0  0  0  0  0
   -1.1257   33.7112    9.4593 H   0  0  0  0  0  0  0  0  0  0  0  0
   -0.4430   32.3904   10.4990 H   0  0  0  0  0  0  0  0  0  0  0  0
    0.5978   26.7394    9.3365 H   0  0  0  0  0  0  0  0  0  0  0  0
    2.9787   29.1531    9.2736 H   0  0  0  0  0  0  0  0  0  0  0  0
    5.1651   29.1240    8.0696 H   0  0  0  0  0  0  0  0  0  0  0  0
    6.8900   26.1260    7.5610 H   0  0  0  0  0  0  0  0  0  0  0  0
    5.0258   24.8113    7.9052 H   0  0  0  0  0  0  0  0  0  0  0  0
    2.8513   24.8277    9.1216 H   0  0  0  0  0  0  0  0  0  0  0  0
    2.0340   25.2340   10.8610 H   0  0  0  0  0  0  0  0  0  0  0  0
    1.4434   24.0697   12.7018 H   0  0  0  0  0  0  0  0  0  0  0  0
   -0.3357   23.4007   14.2982 H   0  0  0  0  0  0  0  0  0  0  0  0
   -2.6897   26.7760   13.0439 H   0  0  0  0  0  0  0  0  0  0  0  0
  1  2  1  0
  2  3  1  0
  3  4  1  0
  4  5  2  0
  5  6  1  0
  6  7  2  0
  7  8  1  0
  8  9  2  0
  8 10  1  0
 10 11  1  0
 11 12  1  0
 12 13  2  0
 13 14  1  0
 14 15  2  0
 15 16  1  0
 15 17  1  0
 17 18  2  0
 11 19  1  0
 19 20  1  0
 20 21  2  0
 21 22  1  0
 22 23  2  0
 23 24  1  0
 23 25  1  0
 25 26  2  0
  9  4  1  0
 18 12  1  0
 26 20  1  0
 26  7  1  0
  1 27  1  0
  1 28  1  0
  1 29  1  0
  2 30  1  0
  2 31  1  0
 11 32  1  6
 13 33  1  0
 14 34  1  0
 16 35  1  0
 17 36  1  0
 18 37  1  0
 19 38  1  0
 21 39  1  0
 22 40  1  0
 25 41  1  0
M  END
>  <vina_affinity>  (1) 
-8.191

$$$$
dec_C65204903
     RDKit          3D

 54 54  0  0  0  0  0  0  0  0999 V2000
   -1.0030   22.2270   15.5770 C   0  0  0  0  0  0  0  0  0  0  0  0
   -2.2290   22.7350   16.0850 O   0  0  0  0  0  0  0  0  0  0  0  0
   -3.2800   21.7750   15.9870 C   0  0  0  0  0  0  0  0  0  0  0  0
   -4.6110   22.5100   16.0860 C   0  0  0  0  0  0  0  0  0  0  0  0
   -4.4580   24.0240   15.9780 C   0  0  0  0  0  0  0  0  0  0  0  0
   -4.0760   24.4710   14.6540 N   0  0  0  0  0  0  0  0  0  0  0  0
   -3.2720   25.5670   14.4720 C   0  0  0  0  0  0  0  0  0  0  0  0
   -2.8500   26.2860   15.3710 O   0  0  0  0  0  0  0  0  0  0  0  0
   -2.9720   25.7760   13.1400 N   0  0  0  0  0  0  0  0  0  0  0  0
   -2.3090   26.9980   12.8560 N   0  0  0  0  0  0  0  0  0  0  0  0
   -1.0860   26.8910   12.2070 C   0  0  0  0  0  0  0  0  0  0  0  0
   -0.4930   25.8150   12.1290 O   0  0  0  0  0  0  0  0  0  0  0  0
   -0.5690   28.2190   11.6260 C   0  0  2  0  0  0  0  0  0  0  0  0
   -0.7640   29.3190   12.6670 C   0  0  0  0  0  0  0  0  0  0  0  0
   -1.2740   28.6250   10.4470 O   0  0  0  0  0  0  0  0  0  0  0  0
   -0.5100   29.4640    9.6760 C   0  0  0  0  0  0  0  0  0  0  0  0
    0.7100   28.9910    9.1790 C   0  0  0  0  0  0  0  0  0  0  0  0
    1.5200   29.8110    8.3900 C   0  0  0  0  0  0  0  0  0  0  0  0
    2.8460   29.3180    7.8930 C   0  0  0  0  0  0  0  0  0  0  0  0
    1.0970   31.1150    8.1170 C   0  0  0  0  0  0  0  0  0  0  0  0
   -0.1370   31.5730    8.5860 C   0  0  0  0  0  0  0  0  0  0  0  0
   -0.9750   30.7490    9.3560 C   0  0  0  0  0  0  0  0  0  0  0  0
   -2.3280   31.2480    9.8370 C   0  0  0  0  0  0  0  0  0  0  0  0
   -3.3950   31.1930    8.7380 C   0  0  0  0  0  0  0  0  0  0  0  0
   -2.2150   32.6610   10.4130 C   0  0  0  0  0  0  0  0  0  0  0  0
   -0.3441   21.9540   16.4145 H   0  0  0  0  0  0  0  0  0  0  0  0
   -1.2017   21.3371   14.9616 H   0  0  0  0  0  0  0  0  0  0  0  0
   -0.5141   22.9966   14.9616 H   0  0  0  0  0  0  0  0  0  0  0  0
   -3.2157   21.2505   15.0222 H   0  0  0  0  0  0  0  0  0  0  0  0
   -3.1944   21.0358   16.7971 H   0  0  0  0  0  0  0  0  0  0  0  0
   -5.2654   22.1637   15.2725 H   0  0  0  0  0  0  0  0  0  0  0  0
   -5.0391   22.2894   17.0750 H   0  0  0  0  0  0  0  0  0  0  0  0
   -5.4189   24.4911   16.2399 H   0  0  0  0  0  0  0  0  0  0  0  0
   -3.6513   24.3186   16.6653 H   0  0  0  0  0  0  0  0  0  0  0  0
   -4.1170   23.8100   13.8910 H   0  0  0  0  0  0  0  0  0  0  0  0
   -3.7230   25.5730   12.4800 H   0  0  0  0  0  0  0  0  0  0  0  0
   -2.9440   27.7610   12.6170 H   0  0  0  0  0  0  0  0  0  0  0  0
    0.4881   28.0632   11.3648 H   0  0  0  0  0  0  0  0  0  0  0  0
   -0.6874   28.8870   13.6757 H   0  0  0  0  0  0  0  0  0  0  0  0
    0.0118   30.0880   12.5376 H   0  0  0  0  0  0  0  0  0  0  0  0
   -1.7569   29.7744   12.5376 H   0  0  0  0  0  0  0  0  0  0  0  0
    1.0334   27.9656    9.4116 H   0  0  0  0  0  0  0  0  0  0  0  0
    3.4925   29.0777    8.7499 H   0  0  0  0  0  0  0  0  0  0  0  0
    2.6962   28.4155    7.2822 H   0  0  0  0  0  0  0  0  0  0  0  0
    3.3221   30.0992    7.2822 H   0  0  0  0  0  0  0  0  0  0  0  0
    1.7404   31.7857    7.5285 H   0  0  0  0  0  0  0  0  0  0  0  0
   -0.4583   32.5977    8.3479 H   0  0  0  0  0  0  0  0  0  0  0  0
   -2.6540   30.5669   10.6369 H   0  0  0  0  0  0  0  0  0  0  0  0
   -4.3929   31.1416    9.1980 H   0  0  0  0  0  0  0  0  0  0  0  0
   -3.3252   32.0959    8.1136 H   0  0  0  0  0  0  0  0  0  0  0  0
   -3.2327   30.3020    8.1136 H   0  0  0  0  0  0  0  0  0  0  0  0
   -2.2190   32.6104   11.5118 H   0  0  0  0  0  0  0  0  0  0  0  0
   -1.2771   33.1226   10.0706 H   0  0  0  0  0  0  0  0  0  0  0  0
   -3.0676   33.2658   10.0706 H   0  0  0  0  0  0  0  0  0  0  0  0
  1  2  1  0
  2  3  1  0
  3  4  1  0
  4  5  1  0
  5  6  1  0
  6  7  1  0
  7  8  2  0
  7  9  1  0
  9 10  1  0
 10 11  1  0
 11 12  2  0
 11 13  1  0
 13 14  1  0
 13 15  1  0
 15 16  1  0
 16 17  2  0
 17 18  1  0
 18 19  1  0
 18 20  2  0
 20 21  1  0
 21 22  2  0
 22 23  1  0
 23 24  1  0
 23 25  1  0
 22 16  1  0
  1 26  1  0
  1 27  1  0
  1 28  1  0
  3 29  1  0
  3 30  1  0
  4 31  1  0
  4 32  1  0
  5 33  1  0
  5 34  1  0
  6 35  1  0
  9 36  1  0
 10 37  1  0
 13 38  1  6
 14 39  1  0
 14 40  1  0
 14 41  1  0
 17 42  1  0
 19 43  1  0
 19 44  1  0
 19 45  1  0
 20 46  1  0
 21 47  1  0
 23 48  1  0
 24 49  1  0
 24 50  1  0
 24 51  1  0
 25 52  1  0
 25 53  1  0
 25 54  1  0
M  END
>  <vina_affinity>  (1) 
-7.605

$$$$
dec_C43618836
     RDKit          3D

 58 60  0  0  0  0  0  0  0  0999 V2000
   -5.1260   19.9430   14.9800 C   0  0  0  0  0  0  0  0  0  0  0  0
   -4.2880   20.9750   15.7430 C   0  0  0  0  0  0  0  0  0  0  0  0
   -4.0820   20.4690   17.1770 C   0  0  0  0  0  0  0  0  0  0  0  0
   -4.9060   22.4020   15.7110 C   0  0  1  0  0  0  0  0  0  0  0  0
   -5.8310   22.6400   16.9280 C   0  0  0  0  0  0  0  0  0  0  0  0
   -7.1550   22.9440   16.4800 O   0  0  0  0  0  0  0  0  0  0  0  0
   -3.8740   23.4490   15.7100 N   0  0  0  0  0  0  0  0  0  0  0  0
   -4.0900   24.6910   15.1300 C   0  0  0  0  0  0  0  0  0  0  0  0
   -5.0870   24.9680   14.4710 O   0  0  0  0  0  0  0  0  0  0  0  0
   -3.0060   25.7260   15.5040 C   0  0  2  0  0  0  0  0  0  0  0  0
   -3.6010   26.9190   16.2380 C   0  0  0  0  0  0  0  0  0  0  0  0
   -2.3030   26.1600   14.2950 N   0  0  0  0  0  0  0  0  0  0  0  0
   -0.9930   26.5830   14.3170 C   0  0  0  0  0  0  0  0  0  0  0  0
   -0.3390   26.6540   15.3550 O   0  0  0  0  0  0  0  0  0  0  0  0
   -0.4400   26.9950   12.9370 C   0  0  2  0  0  0  0  0  0  0  0  0
   -1.1010   28.2170   12.5130 N   0  0  0  0  0  0  0  0  0  0  0  0
   -0.4140   29.3300   12.0690 C   0  0  0  0  0  0  0  0  0  0  0  0
    0.7270   29.6550   12.3360 O   0  0  0  0  0  0  0  0  0  0  0  0
   -1.2930   30.0130   11.1120 C   0  0  0  0  0  0  0  0  0  0  0  0
   -1.0770   31.1870   10.4160 C   0  0  0  0  0  0  0  0  0  0  0  0
   -2.0700   31.5910    9.5230 C   0  0  0  0  0  0  0  0  0  0  0  0
   -3.2330   30.8180    9.3450 C   0  0  0  0  0  0  0  0  0  0  0  0
   -3.4250   29.6290   10.0570 C   0  0  0  0  0  0  0  0  0  0  0  0
   -2.4370   29.2300   10.9420 C   0  0  0  0  0  0  0  0  0  0  0  0
   -2.3710   28.0430   11.8430 C   0  0  1  0  0  0  0  0  0  0  0  0
   -2.2700   26.4390   11.0150 S   0  0  0  0  0  0  0  0  0  0  0  0
   -0.6770   25.9490   11.8180 C   0  0  0  0  0  0  0  0  0  0  0  0
    0.4240   26.0540   10.7490 C   0  0  0  0  0  0  0  0  0  0  0  0
   -0.7800   24.5000   12.2970 C   0  0  0  0  0  0  0  0  0  0  0  0
   -5.6519   19.2954   15.6969 H   0  0  0  0  0  0  0  0  0  0  0  0
   -5.8610   20.4627   14.3477 H   0  0  0  0  0  0  0  0  0  0  0  0
   -4.4665   19.3304   14.3477 H   0  0  0  0  0  0  0  0  0  0  0  0
   -3.3139   21.0779   15.2425 H   0  0  0  0  0  0  0  0  0  0  0  0
   -4.3982   21.2457   17.8889 H   0  0  0  0  0  0  0  0  0  0  0  0
   -4.6819   19.5606   17.3350 H   0  0  0  0  0  0  0  0  0  0  0  0
   -3.0182   20.2380   17.3350 H   0  0  0  0  0  0  0  0  0  0  0  0
   -5.4859   22.4615   14.7782 H   0  0  0  0  0  0  0  0  0  0  0  0
   -5.8556   21.7334   17.5505 H   0  0  0  0  0  0  0  0  0  0  0  0
   -5.4447   23.4847   17.5172 H   0  0  0  0  0  0  0  0  0  0  0  0
   -7.6000   23.4140   17.2070 H   0  0  0  0  0  0  0  0  0  0  0  0
   -3.3310   23.4930   16.5680 H   0  0  0  0  0  0  0  0  0  0  0  0
   -2.2902   25.2466   16.1880 H   0  0  0  0  0  0  0  0  0  0  0  0
   -3.5211   26.7588   17.3233 H   0  0  0  0  0  0  0  0  0  0  0  0
   -3.0522   27.8311   15.9606 H   0  0  0  0  0  0  0  0  0  0  0  0
   -4.6597   27.0294   15.9606 H   0  0  0  0  0  0  0  0  0  0  0  0
   -2.7960   26.0540   13.4150 H   0  0  0  0  0  0  0  0  0  0  0  0
    0.6459   27.1081   13.0711 H   0  0  0  0  0  0  0  0  0  0  0  0
   -0.1606   31.7783   10.5599 H   0  0  0  0  0  0  0  0  0  0  0  0
   -1.9429   32.5228    8.9524 H   0  0  0  0  0  0  0  0  0  0  0  0
   -4.0030   31.1541    8.6349 H   0  0  0  0  0  0  0  0  0  0  0  0
   -4.3355   29.0276    9.9178 H   0  0  0  0  0  0  0  0  0  0  0  0
   -3.2832   28.0134   12.4570 H   0  0  0  0  0  0  0  0  0  0  0  0
    1.4040   26.1475   11.2399 H   0  0  0  0  0  0  0  0  0  0  0  0
    0.4130   25.1507   10.1213 H   0  0  0  0  0  0  0  0  0  0  0  0
    0.2424   26.9389   10.1213 H   0  0  0  0  0  0  0  0  0  0  0  0
   -0.7817   24.4766   13.3967 H   0  0  0  0  0  0  0  0  0  0  0  0
   -1.7121   24.0544   11.9194 H   0  0  0  0  0  0  0  0  0  0  0  0
    0.0797   23.9270   11.9194 H   0  0  0  0  0  0  0  0  0  0  0  0
  1  2  1  0
  2  3  1  0
  2  4  1  0
  4  5  1  0
  5  6  1  0
  4  7  1  0
  7  8  1  0
  8  9  2  0
  8 10  1  0
 10 11  1  0
 10 12  1  0
 12 13  1  0
 13 14  2  0
 13 15  1  0
 15 16  1  0
 16 17  1  0
 17 18  2  0
 17 19  1  0
 19 20  2  0
 20 21  1  0
 21 22  2  0
 22 23  1  0
 23 24  2  0
 24 25  1  0
 25 26  1  0
 26 27  1  0
 27 28  1  0
 27 29  1  0
 27 15  1  0
 25 16  1  0
 24 19  1  0
  1 30  1  0
  1 31  1  0
  1 32  1  0
  2 33  1  0
  3 34  1  0
  3 35  1  0
  3 36  1  0
  4 37  1  6
  5 38  1  0
  5 39  1  0
  6 40  1  0
  7 41  1  0
 10 42  1  1
 11 43  1  0
 11 44  1  0
 11 45  1  0
 12 46  1  0
 15 47  1  1
 20 48  1  0
 21 49  1  0
 22 50  1  0
 23 51  1  0
 25 52  1  1
 28 53  1  0
 28 54  1  0
 28 55  1  0
 29 56  1  0
 29 57  1  0
 29 58  1  0
M  END
>  <vina_affinity>  (1) 
-8.029

$$$$
dec_C65248875
     RDKit          3D

 33 35  0  0  0  0  0  0  0  0999 V2000
   -3.1450   25.4990   14.1970 C   0  0  0  0  0  0  0  0  0  0  0  0
   -2.5000   26.6340   13.5890 N   0  0  0  0  0  0  0  0  0  0  0  0
   -1.6880   26.4520   12.5000 C   0  0  0  0  0  0  0  0  0  0  0  0
   -1.5200   25.3550   11.9740 O   0  0  0  0  0  0  0  0  0  0  0  0
   -1.0850   27.5950   12.0300 N   0  0  0  0  0  0  0  0  0  0  0  0
   -0.9520   28.8700   12.7110 C   0  0  0  0  0  0  0  0  0  0  0  0
   -0.0520   29.6930   11.7990 C   0  0  0  0  0  0  0  0  0  0  0  0
   -0.4110   29.1940   10.3990 C   0  0  1  0  0  0  0  0  0  0  0  0
   -0.8240   27.7350   10.6020 C   0  0  0  0  0  0  0  0  0  0  0  0
   -1.5790   30.0140    9.8030 C   0  0  0  0  0  0  0  0  0  0  0  0
   -2.6790   30.2050   10.2950 O   0  0  0  0  0  0  0  0  0  0  0  0
   -1.1470   30.5350    8.5900 N   0  0  0  0  0  0  0  0  0  0  0  0
    0.1650   30.1850    8.3270 C   0  0  0  0  0  0  0  0  0  0  0  0
    0.9190   30.5370    7.2280 C   0  0  0  0  0  0  0  0  0  0  0  0
    2.2330   30.0680    7.1760 C   0  0  0  0  0  0  0  0  0  0  0  0
    2.7520   29.2700    8.2110 C   0  0  0  0  0  0  0  0  0  0  0  0
    1.9660   28.9270    9.3160 C   0  0  0  0  0  0  0  0  0  0  0  0
    0.6640   29.3960    9.3620 C   0  0  0  0  0  0  0  0  0  0  0  0
   -3.0929   25.5907   15.2919 H   0  0  0  0  0  0  0  0  0  0  0  0
   -4.1983   25.4634   13.8817 H   0  0  0  0  0  0  0  0  0  0  0  0
   -2.6365   24.5759   13.8817 H   0  0  0  0  0  0  0  0  0  0  0  0
   -2.2330   27.3820   14.2080 H   0  0  0  0  0  0  0  0  0  0  0  0
   -1.9333   29.3529   12.8287 H   0  0  0  0  0  0  0  0  0  0  0  0
   -0.5378   28.7634   13.7245 H   0  0  0  0  0  0  0  0  0  0  0  0
   -0.2661   30.7672   11.9005 H   0  0  0  0  0  0  0  0  0  0  0  0
    1.0164   29.5781   12.0340 H   0  0  0  0  0  0  0  0  0  0  0  0
   -1.7309   27.5087   10.0221 H   0  0  0  0  0  0  0  0  0  0  0  0
   -0.0422   27.0401   10.2616 H   0  0  0  0  0  0  0  0  0  0  0  0
   -1.7320   31.1150    8.0060 H   0  0  0  0  0  0  0  0  0  0  0  0
    0.5023   31.1621    6.4245 H   0  0  0  0  0  0  0  0  0  0  0  0
    2.8690   30.3255    6.3163 H   0  0  0  0  0  0  0  0  0  0  0  0
    3.7899   28.9107    8.1508 H   0  0  0  0  0  0  0  0  0  0  0  0
    2.3709   28.3022   10.1258 H   0  0  0  0  0  0  0  0  0  0  0  0
  1  2  1  0
  2  3  1  0
  3  4  2  0
  3  5  1  0
  5  6  1  0
  6  7  1  0
  8  7  1  1
  8  9  1  0
  8 10  1  0
 10 11  2  0
 10 12  1  0
 12 13  1  0
 13 14  2  0
 14 15  1  0
 15 16  2  0
 16 17  1  0
 17 18  2  0
  9  5  1  0
 18 13  1  0
 18  8  1  0
  1 19  1  0
  1 20  1  0
  1 21  1  0
  2 22  1  0
  6 23  1  0
  6 24  1  0
  7 25  1  0
  7 26  1  0
  9 27  1  0
  9 28  1  0
 12 29  1  0
 14 30  1  0
 15 31  1  0
 16 32  1  0
 17 33  1  0
M  END
>  <vina_affinity>  (1) 
-7.852

$$$$
dec_C38573461
     RDKit          3D

 54 58  0  0  0  0  0  0  0  0999 V2000
    1.4800   30.6600    6.7980 C   0  0  0  0  0  0  0  0  0  0  0  0
    0.9150   30.2130    8.1120 C   0  0  0  0  0  0  0  0  0  0  0  0
   -0.3210   30.6850    8.5660 C   0  0  0  0  0  0  0  0  0  0  0  0
   -0.8240   30.2800    9.8080 C   0  0  0  0  0  0  0  0  0  0  0  0
   -0.0920   29.3990   10.6180 C   0  0  0  0  0  0  0  0  0  0  0  0
   -0.5760   28.9330   11.9570 C   0  0  0  0  0  0  0  0  0  0  0  0
   -0.0940   29.4540   12.9640 O   0  0  0  0  0  0  0  0  0  0  0  0
   -1.6510   27.8430   12.0230 C   0  0  1  0  0  0  0  0  0  0  0  0
   -1.4920   26.9600   10.8800 O   0  0  0  0  0  0  0  0  0  0  0  0
   -0.8810   25.8480   11.3940 C   0  0  0  0  0  0  0  0  0  0  0  0
   -0.3480   24.8340   10.6250 C   0  0  0  0  0  0  0  0  0  0  0  0
    0.2470   23.7570   11.2830 C   0  0  0  0  0  0  0  0  0  0  0  0
    0.2900   23.7150   12.6870 C   0  0  0  0  0  0  0  0  0  0  0  0
   -0.2670   24.7470   13.4470 C   0  0  0  0  0  0  0  0  0  0  0  0
   -0.8510   25.8110   12.7780 C   0  0  0  0  0  0  0  0  0  0  0  0
   -1.5520   27.0030   13.3240 C   0  0  2  0  0  0  0  0  0  0  0  0
   -2.8440   26.6120   13.8720 N   0  0  0  0  0  0  0  0  0  0  0  0
   -3.0570   26.5810   15.2320 C   0  0  0  0  0  0  0  0  0  0  0  0
   -2.2510   27.0680   16.0260 O   0  0  0  0  0  0  0  0  0  0  0  0
   -4.3760   25.9390   15.6840 C   0  0  2  0  0  0  0  0  0  0  0  0
   -4.1450   24.6960   16.4540 C   0  0  0  0  0  0  0  0  0  0  0  0
   -4.7180   23.7180   15.7490 C   0  0  0  0  0  0  0  0  0  0  0  0
   -4.7270   22.2840   16.0880 C   0  0  0  0  0  0  0  0  0  0  0  0
   -3.6680   21.7700   16.8580 C   0  0  0  0  0  0  0  0  0  0  0  0
   -3.6170   20.4190   17.2110 C   0  0  0  0  0  0  0  0  0  0  0  0
   -4.6240   19.5520   16.7950 C   0  0  0  0  0  0  0  0  0  0  0  0
   -5.6770   20.0340   16.0200 C   0  0  0  0  0  0  0  0  0  0  0  0
   -5.7240   21.3880   15.6680 C   0  0  0  0  0  0  0  0  0  0  0  0
   -6.7570   21.8260   14.8810 O   0  0  0  0  0  0  0  0  0  0  0  0
   -5.2850   24.1910   14.5860 N   0  0  0  0  0  0  0  0  0  0  0  0
   -5.1270   25.4410   14.4950 N   0  0  0  0  0  0  0  0  0  0  0  0
    1.1500   28.9360   10.1660 C   0  0  0  0  0  0  0  0  0  0  0  0
    1.6410   29.3470    8.9310 C   0  0  0  0  0  0  0  0  0  0  0  0
    2.8360   28.8950    8.5280 F   0  0  0  0  0  0  0  0  0  0  0  0
    2.3314   31.3336    6.9751 H   0  0  0  0  0  0  0  0  0  0  0  0
    1.8189   29.7829    6.2272 H   0  0  0  0  0  0  0  0  0  0  0  0
    0.7044   31.1916    6.2272 H   0  0  0  0  0  0  0  0  0  0  0  0
   -0.9023   31.3799    7.9422 H   0  0  0  0  0  0  0  0  0  0  0  0
   -1.7995   30.6550   10.1511 H   0  0  0  0  0  0  0  0  0  0  0  0
   -2.6347   28.3352   12.0132 H   0  0  0  0  0  0  0  0  0  0  0  0
   -0.3908   24.8734    9.5265 H   0  0  0  0  0  0  0  0  0  0  0  0
    0.6856   22.9348   10.6985 H   0  0  0  0  0  0  0  0  0  0  0  0
    0.7664   22.8620   13.1924 H   0  0  0  0  0  0  0  0  0  0  0  0
   -0.2426   24.7157   14.5463 H   0  0  0  0  0  0  0  0  0  0  0  0
   -1.0703   27.5346   14.1579 H   0  0  0  0  0  0  0  0  0  0  0  0
   -3.4430   26.0140   13.3090 H   0  0  0  0  0  0  0  0  0  0  0  0
   -4.8991   26.7107   16.2677 H   0  0  0  0  0  0  0  0  0  0  0  0
   -3.6109   24.5983   17.4106 H   0  0  0  0  0  0  0  0  0  0  0  0
   -2.8645   22.4446   17.1886 H   0  0  0  0  0  0  0  0  0  0  0  0
   -2.7812   20.0403   17.8176 H   0  0  0  0  0  0  0  0  0  0  0  0
   -4.5884   18.4895   17.0774 H   0  0  0  0  0  0  0  0  0  0  0  0
   -6.4712   19.3506   15.6849 H   0  0  0  0  0  0  0  0  0  0  0  0
   -7.5360   21.9860   15.4400 H   0  0  0  0  0  0  0  0  0  0  0  0
    1.7384   28.2460   10.7887 H   0  0  0  0  0  0  0  0  0  0  0  0
  1  2  1  0
  2  3  2  0
  3  4  1  0
  4  5  2  0
  5  6  1  0
  6  7  2  0
  6  8  1  0
  8  9  1  0
  9 10  1  0
 10 11  2  0
 11 12  1  0
 12 13  2  0
 13 14  1  0
 14 15  2  0
 15 16  1  0
 16 17  1  0
 17 18  1  0
 18 19  2  0
 18 20  1  0
 20 21  1  0
 21 22  2  0
 22 23  1  0
 23 24  2  0
 24 25  1  0
 25 26  2  0
 26 27  1  0
 27 28  2  0
 28 29  1  0
 22 30  1  0
 30 31  2  0
  5 32  1  0
 32 33  2  0
 33 34  1  0
 33  2  1  0
 16  8  1  0
 31 20  1  0
 15 10  1  0
 28 23  1  0
  1 35  1  0
  1 36  1  0
  1 37  1  0
  3 38  1  0
  4 39  1  0
  8 40  1  6
 11 41  1  0
 12 42  1  0
 13 43  1  0
 14 44  1  0
 16 45  1  1
 17 46  1  0
 20 47  1  1
 21 48  1  0
 24 49  1  0
 25 50  1  0
 26 51  1  0
 27 52  1  0
 29 53  1  0
 32 54  1  0
M  END
>  <vina_affinity>  (1) 
-9.309

$$$$
dec_C02512313
     RDKit          3D

 28 29  0  0  0  0  0  0  0  0999 V2000
   -3.4030   29.9560   10.0610 O   0  0  0  0  0  0  0  0  0  0  0  0
   -2.1980   29.7370   10.1700 C   0  0  0  0  0  0  0  0  0  0  0  0
   -1.7380   28.6300   11.0510 C   0  0  0  0  0  0  0  0  0  0  0  0
   -1.1440   28.8750   12.3000 C   0  0  0  0  0  0  0  0  0  0  0  0
   -0.7020   27.8080   13.0870 C   0  0  0  0  0  0  0  0  0  0  0  0
   -0.8490   26.5120   12.6140 C   0  0  0  0  0  0  0  0  0  0  0  0
   -0.4160   25.4700   13.3850 O   0  0  0  0  0  0  0  0  0  0  0  0
   -1.4190   26.2640   11.3690 C   0  0  0  0  0  0  0  0  0  0  0  0
   -1.5200   24.9610   10.9630 O   0  0  0  0  0  0  0  0  0  0  0  0
   -1.8630   27.3150   10.5770 C   0  0  0  0  0  0  0  0  0  0  0  0
   -1.2510   30.5610    9.3860 C   0  0  0  0  0  0  0  0  0  0  0  0
   -0.3060   29.8900    8.5980 C   0  0  0  0  0  0  0  0  0  0  0  0
    0.6070   30.6170    7.8350 C   0  0  0  0  0  0  0  0  0  0  0  0
    0.5640   32.0070    7.8490 C   0  0  0  0  0  0  0  0  0  0  0  0
    1.4790   32.6720    7.0870 O   0  0  0  0  0  0  0  0  0  0  0  0
   -0.3850   32.6900    8.6060 C   0  0  0  0  0  0  0  0  0  0  0  0
   -1.2990   31.9600    9.3710 C   0  0  0  0  0  0  0  0  0  0  0  0
   -2.2580   32.6200   10.0880 O   0  0  0  0  0  0  0  0  0  0  0  0
   -1.0265   29.9080   12.6592 H   0  0  0  0  0  0  0  0  0  0  0  0
   -0.2432   27.9934   14.0694 H   0  0  0  0  0  0  0  0  0  0  0  0
   -1.2350   25.0870   13.7600 H   0  0  0  0  0  0  0  0  0  0  0  0
   -0.7820   24.7790   10.3560 H   0  0  0  0  0  0  0  0  0  0  0  0
   -2.3073   27.1190    9.5900 H   0  0  0  0  0  0  0  0  0  0  0  0
   -0.2846   28.7903    8.5814 H   0  0  0  0  0  0  0  0  0  0  0  0
    1.3578   30.0935    7.2248 H   0  0  0  0  0  0  0  0  0  0  0  0
    2.3670   32.3280    7.2750 H   0  0  0  0  0  0  0  0  0  0  0  0
   -0.4147   33.7896    8.6018 H   0  0  0  0  0  0  0  0  0  0  0  0
   -2.3560   33.5270    9.7550 H   0  0  0  0  0  0  0  0  0  0  0  0
  1  2  2  0
  2  3  1  0
  3  4  2  0
  4  5  1  0
  5  6  2  0
  6  7  1  0
  6  8  1  0
  8  9  1  0
  8 10  2  0
  2 11  1  0
 11 12  2  0
 12 13  1  0
 13 14  2  0
 14 15  1  0
 14 16  1  0
 16 17  2  0
 17 18  1  0
 10  3  1  0
 17 11  1  0
  4 19  1  0
  5 20  1  0
  7 21  1  0
  9 22  1  0
 10 23  1  0
 12 24  1  0
 13 25  1  0
 15 26  1  0
 16 27  1  0
 18 28  1  0
M  END
>  <vina_affinity>  (1) 
-7.199

$$$$
dec_C66784886
     RDKit          3D

 39 40  0  0  0  0  0  0  0  0999 V2000
    0.5340   28.6870   11.7500 O   0  0  0  0  0  0  0  0  0  0  0  0
   -0.4820   28.5120   12.4170 C   0  0  0  0  0  0  0  0  0  0  0  0
   -0.6770   27.2460   13.1650 C   0  0  0  0  0  0  0  0  0  0  0  0
   -1.7970   26.5060   13.1200 C   0  0  0  0  0  0  0  0  0  0  0  0
   -1.9840   25.2760   13.9020 C   0  0  0  0  0  0  0  0  0  0  0  0
   -1.0230   24.2540   13.9300 C   0  0  0  0  0  0  0  0  0  0  0  0
   -1.2400   23.0800   14.6660 C   0  0  0  0  0  0  0  0  0  0  0  0
   -2.4280   22.9010   15.3750 C   0  0  0  0  0  0  0  0  0  0  0  0
   -2.6200   21.4500   16.2860 Cl  0  0  0  0  0  0  0  0  0  0  0  0
   -3.3860   23.9100   15.3250 C   0  0  0  0  0  0  0  0  0  0  0  0
   -4.6370   23.7630   16.0270 N   0  0  0  0  0  0  0  0  0  0  0  0
   -5.6460   23.5500   15.3440 O   0  0  0  0  0  0  0  0  0  0  0  0
   -4.6070   23.9130   17.2550 O   0  0  0  0  0  0  0  0  0  0  0  0
   -3.1830   25.0930   14.5980 C   0  0  0  0  0  0  0  0  0  0  0  0
   -1.5240   29.4080   12.4700 N   0  0  0  0  0  0  0  0  0  0  0  0
   -1.5030   30.4760   11.5510 N   0  0  0  0  0  0  0  0  0  0  0  0
   -2.3180   30.3440   10.4410 C   0  0  0  0  0  0  0  0  0  0  0  0
   -3.1720   29.4620   10.3470 O   0  0  0  0  0  0  0  0  0  0  0  0
   -2.0680   31.3700    9.3570 C   0  0  0  0  0  0  0  0  0  0  0  0
   -0.7520   31.1530    8.6620 C   0  0  0  0  0  0  0  0  0  0  0  0
   -0.2230   29.8680    8.4940 C   0  0  0  0  0  0  0  0  0  0  0  0
    1.0130   29.6930    7.8670 C   0  0  0  0  0  0  0  0  0  0  0  0
    1.7320   30.7980    7.4080 C   0  0  0  0  0  0  0  0  0  0  0  0
    1.2190   32.0810    7.5810 C   0  0  0  0  0  0  0  0  0  0  0  0
   -0.0120   32.2470    8.2050 C   0  0  0  0  0  0  0  0  0  0  0  0
   -0.4940   33.4870    8.3820 F   0  0  0  0  0  0  0  0  0  0  0  0
    0.1494   26.8901   13.7977 H   0  0  0  0  0  0  0  0  0  0  0  0
   -2.6158   26.8375   12.4645 H   0  0  0  0  0  0  0  0  0  0  0  0
   -0.0860   24.3753   13.3666 H   0  0  0  0  0  0  0  0  0  0  0  0
   -0.4689   22.2958   14.6843 H   0  0  0  0  0  0  0  0  0  0  0  0
   -3.9610   25.8703   14.5758 H   0  0  0  0  0  0  0  0  0  0  0  0
   -2.4570   29.1080   12.7540 H   0  0  0  0  0  0  0  0  0  0  0  0
   -0.5950   30.9400   11.4530 H   0  0  0  0  0  0  0  0  0  0  0  0
   -2.8762   31.3042    8.6137 H   0  0  0  0  0  0  0  0  0  0  0  0
   -2.0399   32.3622    9.8311 H   0  0  0  0  0  0  0  0  0  0  0  0
   -0.7824   28.9931    8.8569 H   0  0  0  0  0  0  0  0  0  0  0  0
    1.4214   28.6803    7.7344 H   0  0  0  0  0  0  0  0  0  0  0  0
    2.7026   30.6555    6.9103 H   0  0  0  0  0  0  0  0  0  0  0  0
    1.7834   32.9562    7.2267 H   0  0  0  0  0  0  0  0  0  0  0  0
  1  2  2  0
  2  3  1  0
  3  4  2  0
  4  5  1  0
  5  6  2  0
  6  7  1  0
  7  8  2  0
  8  9  1  0
  8 10  1  0
 10 11  1  0
 11 12  2  0
 11 13  1  0
 10 14  2  0
  2 15  1  0
 15 16  1  0
 16 17  1  0
 17 18  2  0
 17 19  1  0
 19 20  1  0
 20 21  2  0
 21 22  1  0
 22 23  2  0
 23 24  1  0
 24 25  2  0
 25 26  1  0
 14  5  1  0
 25 20  1  0
  3 27  1  0
  4 28  1  0
  6 29  1  0
  7 30  1  0
 14 31  1  0
 15 32  1  0
 16 33  1  0
 19 34  1  0
 19 35  1  0
 21 36  1  0
 22 37  1  0
 23 38  1  0
 24 39  1  0
M  CHG  2  11   1  13  -1
M  END
>  <vina_affinity>  (1) 
-8.364

$$$$
dec_C35358467
     RDKit          3D

 33 34  0  0  0  0  0  0  0  0999 V2000
   -5.2150   26.6930   13.0590 N   0  0  0  0  0  0  0  0  0  0  0  0
   -3.9420   26.6940   12.4280 N   0  0  0  0  0  0  0  0  0  0  0  0
   -2.8340   26.2970   13.2190 C   0  0  0  0  0  0  0  0  0  0  0  0
   -3.0920   25.5180   14.3090 N   0  0  0  0  0  0  0  0  0  0  0  0
   -2.0720   25.2030   15.1390 C   0  0  0  0  0  0  0  0  0  0  0  0
   -0.7700   25.6250   14.9520 C   0  0  0  0  0  0  0  0  0  0  0  0
   -0.5000   26.4150   13.8430 C   0  0  0  0  0  0  0  0  0  0  0  0
   -1.5420   26.7510   12.9700 C   0  0  0  0  0  0  0  0  0  0  0  0
   -1.1780   27.7000   11.5370 S   0  0  0  0  0  0  0  0  0  0  0  0
   -1.5410   26.9070   10.3850 O   0  0  0  0  0  0  0  0  0  0  0  0
    0.1270   28.3090   11.6850 O   0  0  0  0  0  0  0  0  0  0  0  0
   -2.3010   28.9460   11.6150 N   0  0  0  0  0  0  0  0  0  0  0  0
   -2.8040   29.4940   10.3550 C   0  0  0  0  0  0  0  0  0  0  0  0
   -1.9950   30.6890    9.9330 C   0  0  0  0  0  0  0  0  0  0  0  0
   -2.2660   31.9620   10.4560 C   0  0  0  0  0  0  0  0  0  0  0  0
   -1.5200   33.0690   10.0430 C   0  0  0  0  0  0  0  0  0  0  0  0
   -0.5030   32.9180    9.0990 C   0  0  0  0  0  0  0  0  0  0  0  0
   -0.2340   31.6590    8.5650 C   0  0  0  0  0  0  0  0  0  0  0  0
   -0.9810   30.5600    8.9810 C   0  0  0  0  0  0  0  0  0  0  0  0
   -0.7150   29.3600    8.4470 F   0  0  0  0  0  0  0  0  0  0  0  0
   -5.1860   27.3800   13.8190 H   0  0  0  0  0  0  0  0  0  0  0  0
   -5.3280   25.8070   13.5630 H   0  0  0  0  0  0  0  0  0  0  0  0
   -3.9220   26.2550   11.4960 H   0  0  0  0  0  0  0  0  0  0  0  0
   -2.2919   24.5740   16.0142 H   0  0  0  0  0  0  0  0  0  0  0  0
    0.0257   25.3446   15.6578 H   0  0  0  0  0  0  0  0  0  0  0  0
    0.5222   26.7735   13.6519 H   0  0  0  0  0  0  0  0  0  0  0  0
   -2.9780   28.8170   12.3670 H   0  0  0  0  0  0  0  0  0  0  0  0
   -2.7404   28.7214    9.5746 H   0  0  0  0  0  0  0  0  0  0  0  0
   -3.8486   29.8076   10.4984 H   0  0  0  0  0  0  0  0  0  0  0  0
   -3.0703   32.0896   11.1954 H   0  0  0  0  0  0  0  0  0  0  0  0
   -1.7349   34.0626   10.4632 H   0  0  0  0  0  0  0  0  0  0  0  0
    0.0847   33.7904    8.7773 H   0  0  0  0  0  0  0  0  0  0  0  0
    0.5644   31.5342    7.8187 H   0  0  0  0  0  0  0  0  0  0  0  0
  1  2  1  0
  2  3  1  0
  3  4  2  0
  4  5  1  0
  5  6  2  0
  6  7  1  0
  7  8  2  0
  8  9  1  0
  9 10  2  0
  9 11  2  0
  9 12  1  0
 12 13  1  0
 13 14  1  0
 14 15  2  0
 15 16  1  0
 16 17  2  0
 17 18  1  0
 18 19  2  0
 19 20  1  0
  8  3  1  0
 19 14  1  0
  1 21  1  0
  1 22  1  0
  2 23  1  0
  5 24  1  0
  6 25  1  0
  7 26  1  0
 12 27  1  0
 13 28  1  0
 13 29  1  0
 15 30  1  0
 16 31  1  0
 17 32  1  0
 18 33  1  0
M  END
>  <vina_affinity>  (1) 
-7.619

$$$$
dec_C39693574
     RDKit          3D

 66 68  0  0  0  0  0  0  0  0999 V2000
   -2.2700   32.9150   10.8360 C   0  0  0  0  0  0  0  0  0  0  0  0
   -1.3570   32.3330    9.8050 C   0  0  0  0  0  0  0  0  0  0  0  0
   -0.3130   33.0680    9.1540 C   0  0  0  0  0  0  0  0  0  0  0  0
    0.3520   32.3210    8.2080 C   0  0  0  0  0  0  0  0  0  0  0  0
   -0.2790   30.7410    8.0880 S   0  0  0  0  0  0  0  0  0  0  0  0
   -1.4150   31.0230    9.3420 C   0  0  0  0  0  0  0  0  0  0  0  0
   -2.3720   29.9940    9.7270 C   0  0  0  0  0  0  0  0  0  0  0  0
   -3.5850   30.2010    9.7110 O   0  0  0  0  0  0  0  0  0  0  0  0
   -1.8900   28.7710   10.1870 N   0  0  0  0  0  0  0  0  0  0  0  0
   -2.0550   28.4030   11.5860 C   0  0  0  0  0  0  0  0  0  0  0  0
   -1.5080   26.9810   11.6480 C   0  0  2  0  0  0  0  0  0  0  0  0
   -1.0960   26.5640   13.0430 C   0  0  0  0  0  0  0  0  0  0  0  0
   -0.5780   27.3290   13.8460 O   0  0  0  0  0  0  0  0  0  0  0  0
   -1.2440   25.2120   13.2780 N   0  0  0  0  0  0  0  0  0  0  0  0
   -0.9230   24.6500   14.5850 C   0  0  0  0  0  0  0  0  0  0  0  0
   -2.0980   23.8890   15.2140 C   0  0  0  0  0  0  0  0  0  0  0  0
   -1.9690   22.4550   15.0940 N   0  0  0  0  0  0  0  0  0  0  0  0
   -1.1200   21.7360   15.8800 C   0  0  0  0  0  0  0  0  0  0  0  0
   -0.5160   22.1930   16.8370 O   0  0  0  0  0  0  0  0  0  0  0  0
   -1.0720   20.4670   15.4230 O   0  0  0  0  0  0  0  0  0  0  0  0
    0.0590   20.0000   14.6410 C   0  0  0  0  0  0  0  0  0  0  0  0
    0.8800   21.1740   14.0960 C   0  0  0  0  0  0  0  0  0  0  0  0
    0.9250   19.2150   15.6380 C   0  0  0  0  0  0  0  0  0  0  0  0
   -0.3910   19.0490   13.5270 C   0  0  0  0  0  0  0  0  0  0  0  0
   -0.3480   27.0070   10.6010 C   0  0  0  0  0  0  0  0  0  0  0  0
    0.9080   27.7870   11.0940 C   0  0  0  0  0  0  0  0  0  0  0  0
    2.1420   27.4440   10.2760 C   0  0  0  0  0  0  0  0  0  0  0  0
    2.4630   25.9920   10.4360 N   0  0  0  0  0  0  0  0  0  0  0  0
    1.3180   25.0760   10.7330 C   0  0  0  0  0  0  0  0  0  0  0  0
    0.0450   25.6030   10.0860 C   0  0  0  0  0  0  0  0  0  0  0  0
   -1.0490   27.8190    9.4790 C   0  0  0  0  0  0  0  0  0  0  0  0
   -1.8908   32.6733   11.8399 H   0  0  0  0  0  0  0  0  0  0  0  0
   -2.3127   34.0073   10.7133 H   0  0  0  0  0  0  0  0  0  0  0  0
   -3.2782   32.4926   10.7133 H   0  0  0  0  0  0  0  0  0  0  0  0
   -0.0695   34.1155    9.3852 H   0  0  0  0  0  0  0  0  0  0  0  0
    1.1895   32.6978    7.6024 H   0  0  0  0  0  0  0  0  0  0  0  0
   -1.4789   29.0745   12.2396 H   0  0  0  0  0  0  0  0  0  0  0  0
   -3.0981   28.4756   11.9275 H   0  0  0  0  0  0  0  0  0  0  0  0
   -2.2566   26.2120   11.4068 H   0  0  0  0  0  0  0  0  0  0  0  0
   -1.9590   24.7170   12.7580 H   0  0  0  0  0  0  0  0  0  0  0  0
   -0.0770   23.9564   14.4704 H   0  0  0  0  0  0  0  0  0  0  0  0
   -0.6779   25.4887   15.2533 H   0  0  0  0  0  0  0  0  0  0  0  0
   -2.1526   24.1482   16.2816 H   0  0  0  0  0  0  0  0  0  0  0  0
   -3.0093   24.1844   14.6734 H   0  0  0  0  0  0  0  0  0  0  0  0
   -2.3020   21.9780   14.2650 H   0  0  0  0  0  0  0  0  0  0  0  0
    1.2877   21.7570   14.9349 H   0  0  0  0  0  0  0  0  0  0  0  0
    1.7068   20.7890   13.4810 H   0  0  0  0  0  0  0  0  0  0  0  0
    0.2347   21.8185   13.4810 H   0  0  0  0  0  0  0  0  0  0  0  0
    0.6330   19.4797   16.6650 H   0  0  0  0  0  0  0  0  0  0  0  0
    0.7778   18.1362   15.4814 H   0  0  0  0  0  0  0  0  0  0  0  0
    1.9842   19.4671   15.4814 H   0  0  0  0  0  0  0  0  0  0  0  0
   -0.8212   18.1399   13.9725 H   0  0  0  0  0  0  0  0  0  0  0  0
   -1.1493   19.5464   12.9044 H   0  0  0  0  0  0  0  0  0  0  0  0
    0.4744   18.7780   12.9044 H   0  0  0  0  0  0  0  0  0  0  0  0
    0.7130   28.8662   11.0090 H   0  0  0  0  0  0  0  0  0  0  0  0
    1.0999   27.5012   12.1387 H   0  0  0  0  0  0  0  0  0  0  0  0
    1.9499   27.6616    9.2150 H   0  0  0  0  0  0  0  0  0  0  0  0
    2.9923   28.0468   10.6277 H   0  0  0  0  0  0  0  0  0  0  0  0
    3.1530   25.8910   11.1960 H   0  0  0  0  0  0  0  0  0  0  0  0
    2.9550   25.6670    9.5910 H   0  0  0  0  0  0  0  0  0  0  0  0
    1.5405   24.0748   10.3355 H   0  0  0  0  0  0  0  0  0  0  0  0
    1.1728   25.0226   11.8221 H   0  0  0  0  0  0  0  0  0  0  0  0
    0.1994   25.6575    8.9983 H   0  0  0  0  0  0  0  0  0  0  0  0
   -0.7709   24.9127   10.3465 H   0  0  0  0  0  0  0  0  0  0  0  0
   -0.3078   28.3427    8.8574 H   0  0  0  0  0  0  0  0  0  0  0  0
   -1.6271   27.1771    8.7980 H   0  0  0  0  0  0  0  0  0  0  0  0
  1  2  1  0
  2  3  1  0
  3  4  2  0
  4  5  1  0
  5  6  1  0
  6  7  1  0
  7  8  2  0
  7  9  1  0
  9 10  1  0
 10 11  1  0
 11 12  1  0
 12 13  2  0
 12 14  1  0
 14 15  1  0
 15 16  1  0
 16 17  1  0
 17 18  1  0
 18 19  2  0
 18 20  1  0
 20 21  1  0
 21 22  1  0
 21 23  1  0
 21 24  1  0
 11 25  1  0
 25 26  1  0
 26 27  1  0
 27 28  1  0
 28 29  1  0
 29 30  1  0
 25 31  1  0
  6  2  2  0
 31  9  1  0
 30 25  1  0
  1 32  1  0
  1 33  1  0
  1 34  1  0
  3 35  1  0
  4 36  1  0
 10 37  1  0
 10 38  1  0
 11 39  1  6
 14 40  1  0
 15 41  1  0
 15 42  1  0
 16 43  1  0
 16 44  1  0
 17 45  1  0
 22 46  1  0
 22 47  1  0
 22 48  1  0
 23 49  1  0
 23 50  1  0
 23 51  1  0
 24 52  1  0
 24 53  1  0
 24 54  1  0
 26 55  1  0
 26 56  1  0
 27 57  1  0
 27 58  1  0
 28 59  1  0
 28 60  1  0
 29 61  1  0
 29 62  1  0
 30 63  1  0
 30 64  1  0
 31 65  1  0
 31 66  1  0
M  CHG  1  28   1
M  END
>  <vina_affinity>  (1) 
-7.994

$$$$
dec_C04222501
     RDKit          3D

 62 65  0  0  0  0  0  0  0  0999 V2000
   -3.0780   25.5690   14.1400 C   0  0  0  0  0  0  0  0  0  0  0  0
   -2.0110   25.0460   13.9600 C   0  0  0  0  0  0  0  0  0  0  0  0
   -0.7110   24.4080   13.7410 C   0  0  0  0  0  0  0  0  0  0  0  0
    0.1770   25.3270   13.0730 N   0  0  0  0  0  0  0  0  0  0  0  0
    0.4090   25.2080   11.7220 C   0  0  0  0  0  0  0  0  0  0  0  0
   -0.1600   24.3810   11.0170 O   0  0  0  0  0  0  0  0  0  0  0  0
    1.4670   26.1610   11.2110 C   0  0  0  0  0  0  0  0  0  0  0  0
    0.9560   27.1670   10.1550 C   0  0  2  0  0  0  0  0  0  0  0  0
    2.1130   27.7190    9.3430 C   0  0  0  0  0  0  0  0  0  0  0  0
    3.2230   26.9500    9.0400 N   0  0  0  0  0  0  0  0  0  0  0  0
    4.0620   27.6490    8.3070 C   0  0  0  0  0  0  0  0  0  0  0  0
    5.2390   27.1010    7.8780 N   0  0  0  0  0  0  0  0  0  0  0  0
    5.4540   26.3150    6.7680 C   0  0  0  0  0  0  0  0  0  0  0  0
    4.5940   25.9870    5.9570 O   0  0  0  0  0  0  0  0  0  0  0  0
    6.8430   25.8760    6.6030 C   0  0  0  0  0  0  0  0  0  0  0  0
    7.8440   25.9430    7.5560 C   0  0  0  0  0  0  0  0  0  0  0  0
    9.0900   25.4350    7.0860 C   0  0  0  0  0  0  0  0  0  0  0  0
    9.0050   24.9950    5.7860 C   0  0  0  0  0  0  0  0  0  0  0  0
    7.4340   25.1930    5.1440 S   0  0  0  0  0  0  0  0  0  0  0  0
    3.5790   29.2420    7.9430 S   0  0  0  0  0  0  0  0  0  0  0  0
    2.1350   28.9880    8.8070 C   0  0  0  0  0  0  0  0  0  0  0  0
    1.0790   30.0250    8.9620 C   0  0  0  0  0  0  0  0  0  0  0  0
   -0.2330   29.3720    9.4810 C   0  0  2  0  0  0  0  0  0  0  0  0
   -1.4260   30.4000    9.6270 C   0  0  2  0  0  0  0  0  0  0  0  0
   -1.8230   30.9130    8.2100 C   0  0  0  0  0  0  0  0  0  0  0  0
   -1.0630   31.6550   10.4660 C   0  0  0  0  0  0  0  0  0  0  0  0
   -1.8960   32.7630   10.1170 O   0  0  0  0  0  0  0  0  0  0  0  0
   -2.6690   29.6520   10.1960 C   0  0  2  0  0  0  0  0  0  0  0  0
   -3.7880   30.5020   10.4370 O   0  0  0  0  0  0  0  0  0  0  0  0
   -2.3610   28.8930   11.4790 C   0  0  0  0  0  0  0  0  0  0  0  0
   -1.2980   27.8300   11.2360 C   0  0  0  0  0  0  0  0  0  0  0  0
    0.0490   28.3840   10.7070 C   0  0  1  0  0  0  0  0  0  0  0  0
    0.7800   29.0790   11.8840 C   0  0  0  0  0  0  0  0  0  0  0  0
   -4.0546   26.0477   14.3047 H   0  0  0  0  0  0  0  0  0  0  0  0
   -0.2774   24.1203   14.7101 H   0  0  0  0  0  0  0  0  0  0  0  0
   -0.8459   23.5133   13.1154 H   0  0  0  0  0  0  0  0  0  0  0  0
    0.8500   25.8270   13.6400 H   0  0  0  0  0  0  0  0  0  0  0  0
    1.8617   26.7292   12.0662 H   0  0  0  0  0  0  0  0  0  0  0  0
    2.2342   25.5466   10.7172 H   0  0  0  0  0  0  0  0  0  0  0  0
    0.2764   26.5707    9.5285 H   0  0  0  0  0  0  0  0  0  0  0  0
    6.0250   27.3140    8.4750 H   0  0  0  0  0  0  0  0  0  0  0  0
    7.6941   26.3455    8.5687 H   0  0  0  0  0  0  0  0  0  0  0  0
   10.0085   25.3992    7.6902 H   0  0  0  0  0  0  0  0  0  0  0  0
    9.8488   24.5662    5.2255 H   0  0  0  0  0  0  0  0  0  0  0  0
    1.4173   30.7851    9.6815 H   0  0  0  0  0  0  0  0  0  0  0  0
    0.8877   30.4952    7.9861 H   0  0  0  0  0  0  0  0  0  0  0  0
   -0.6270   28.7016    8.7030 H   0  0  0  0  0  0  0  0  0  0  0  0
   -2.4935   31.7794    8.3083 H   0  0  0  0  0  0  0  0  0  0  0  0
   -0.9176   31.2105    7.6608 H   0  0  0  0  0  0  0  0  0  0  0  0
   -2.3381   30.1111    7.6608 H   0  0  0  0  0  0  0  0  0  0  0  0
   -1.1980   31.4256   11.5333 H   0  0  0  0  0  0  0  0  0  0  0  0
   -0.0167   31.9243   10.2591 H   0  0  0  0  0  0  0  0  0  0  0  0
   -2.3880   32.5070    9.3150 H   0  0  0  0  0  0  0  0  0  0  0  0
   -2.9339   28.9409    9.3997 H   0  0  0  0  0  0  0  0  0  0  0  0
   -4.6000   30.0050   10.1980 H   0  0  0  0  0  0  0  0  0  0  0  0
   -1.9965   29.6007   12.2381 H   0  0  0  0  0  0  0  0  0  0  0  0
   -3.2806   28.3994   11.8263 H   0  0  0  0  0  0  0  0  0  0  0  0
   -1.1072   27.3101   12.1864 H   0  0  0  0  0  0  0  0  0  0  0  0
   -1.6925   27.1629   10.4553 H   0  0  0  0  0  0  0  0  0  0  0  0
    0.3822   28.7008   12.8373 H   0  0  0  0  0  0  0  0  0  0  0  0
    1.8571   28.8638   11.8250 H   0  0  0  0  0  0  0  0  0  0  0  0
    0.6194   30.1656   11.8250 H   0  0  0  0  0  0  0  0  0  0  0  0
  1  2  3  0
  2  3  1  0
  3  4  1  0
  4  5  1  0
  5  6  2  0
  5  7  1  0
  7  8  1  0
  8  9  1  0
  9 10  1  0
 10 11  2  0
 11 12  1  0
 12 13  1  0
 13 14  2  0
 13 15  1  0
 15 16  2  0
 16 17  1  0
 17 18  2  0
 18 19  1  0
 11 20  1  0
 20 21  1  0
 21 22  1  0
 22 23  1  0
 23 24  1  0
 24 25  1  6
 24 26  1  0
 26 27  1  0
 24 28  1  0
 28 29  1  0
 28 30  1  0
 30 31  1  0
 31 32  1  0
 32 33  1  1
 32  8  1  0
 21  9  2  0
 32 23  1  0
 19 15  1  0
  1 34  1  0
  3 35  1  0
  3 36  1  0
  4 37  1  0
  7 38  1  0
  7 39  1  0
  8 40  1  6
 12 41  1  0
 16 42  1  0
 17 43  1  0
 18 44  1  0
 22 45  1  0
 22 46  1  0
 23 47  1  6
 25 48  1  0
 25 49  1  0
 25 50  1  0
 26 51  1  0
 26 52  1  0
 27 53  1  0
 28 54  1  6
 29 55  1  0
 30 56  1  0
 30 57  1  0
 31 58  1  0
 31 59  1  0
 33 60  1  0
 33 61  1  0
 33 62  1  0
M  END
>  <vina_affinity>  (1) 
-7.885

$$$$
dec_C16451053
     RDKit          3D

 51 55  0  0  0  0  0  0  0  0999 V2000
   -1.6090   31.2500    8.9590 O   0  0  0  0  0  0  0  0  0  0  0  0
   -1.8200   30.7390   10.0990 C   0  0  0  0  0  0  0  0  0  0  0  0
   -1.5210   31.1970   11.2400 O   0  0  0  0  0  0  0  0  0  0  0  0
   -2.4360   29.3520   10.0870 C   0  0  0  0  0  0  0  0  0  0  0  0
   -1.6080   28.3900   10.7950 N   0  0  0  0  0  0  0  0  0  0  0  0
   -2.0180   27.6890   11.9050 C   0  0  0  0  0  0  0  0  0  0  0  0
   -0.9440   26.9810   12.3890 C   0  0  0  0  0  0  0  0  0  0  0  0
   -0.9690   26.0730   13.4900 C   0  0  0  0  0  0  0  0  0  0  0  0
   -0.8360   24.7390   13.4920 C   0  0  0  0  0  0  0  0  0  0  0  0
   -0.7470   23.8310   14.9580 S   0  0  0  0  0  0  0  0  0  0  0  0
   -0.0360   22.4540   14.1280 C   0  0  0  0  0  0  0  0  0  0  0  0
    0.6170   21.6180   14.8690 N   0  0  0  0  0  0  0  0  0  0  0  0
    1.4800   20.6380   14.3700 C   0  0  0  0  0  0  0  0  0  0  0  0
    2.7350   20.9570   13.8370 C   0  0  0  0  0  0  0  0  0  0  0  0
    3.5920   19.9510   13.3850 C   0  0  0  0  0  0  0  0  0  0  0  0
    3.2120   18.6130   13.4890 C   0  0  0  0  0  0  0  0  0  0  0  0
    1.9830   18.2820   14.0570 C   0  0  0  0  0  0  0  0  0  0  0  0
    1.1290   19.2920   14.5050 C   0  0  0  0  0  0  0  0  0  0  0  0
   -0.2480   22.5610   12.7670 N   0  0  0  0  0  0  0  0  0  0  0  0
   -0.2220   21.4660   11.8510 C   0  0  0  0  0  0  0  0  0  0  0  0
    0.7590   21.3830   10.8530 C   0  0  0  0  0  0  0  0  0  0  0  0
    0.7920   20.3030    9.9660 C   0  0  0  0  0  0  0  0  0  0  0  0
   -0.1490   19.2820   10.0740 C   0  0  0  0  0  0  0  0  0  0  0  0
   -1.1140   19.3350   11.0760 C   0  0  0  0  0  0  0  0  0  0  0  0
   -1.1450   20.4160   11.9620 C   0  0  0  0  0  0  0  0  0  0  0  0
   -0.7360   23.7980   12.3370 C   0  0  0  0  0  0  0  0  0  0  0  0
   -1.1460   24.0680   11.2160 O   0  0  0  0  0  0  0  0  0  0  0  0
    0.1650   27.2370   11.5240 C   0  0  0  0  0  0  0  0  0  0  0  0
    1.5070   26.7980   11.4840 C   0  0  0  0  0  0  0  0  0  0  0  0
    2.3540   27.2410   10.4610 C   0  0  0  0  0  0  0  0  0  0  0  0
    1.8810   28.1070    9.4790 C   0  0  0  0  0  0  0  0  0  0  0  0
    0.5590   28.5580    9.4970 C   0  0  0  0  0  0  0  0  0  0  0  0
   -0.2800   28.1160   10.5310 C   0  0  0  0  0  0  0  0  0  0  0  0
   -3.4233   29.3962   10.5700 H   0  0  0  0  0  0  0  0  0  0  0  0
   -2.5234   29.0246    9.0405 H   0  0  0  0  0  0  0  0  0  0  0  0
   -3.0317   27.6941   12.3322 H   0  0  0  0  0  0  0  0  0  0  0  0
   -1.1187   26.5335   14.4777 H   0  0  0  0  0  0  0  0  0  0  0  0
    3.0487   22.0094   13.7737 H   0  0  0  0  0  0  0  0  0  0  0  0
    4.5663   20.2138   12.9472 H   0  0  0  0  0  0  0  0  0  0  0  0
    3.8812   17.8203   13.1233 H   0  0  0  0  0  0  0  0  0  0  0  0
    1.6863   17.2271   14.1522 H   0  0  0  0  0  0  0  0  0  0  0  0
    0.1684   19.0249   14.9698 H   0  0  0  0  0  0  0  0  0  0  0  0
    1.5134   22.1789   10.7666 H   0  0  0  0  0  0  0  0  0  0  0  0
    1.5621   20.2596    9.1818 H   0  0  0  0  0  0  0  0  0  0  0  0
   -0.1298   18.4368    9.3702 H   0  0  0  0  0  0  0  0  0  0  0  0
   -1.8528   18.5256   11.1707 H   0  0  0  0  0  0  0  0  0  0  0  0
   -1.9042   20.4434   12.7575 H   0  0  0  0  0  0  0  0  0  0  0  0
    1.8855   26.1101   12.2544 H   0  0  0  0  0  0  0  0  0  0  0  0
    3.4002   26.9025   10.4330 H   0  0  0  0  0  0  0  0  0  0  0  0
    2.5573   28.4406    8.6782 H   0  0  0  0  0  0  0  0  0  0  0  0
    0.1855   29.2419    8.7206 H   0  0  0  0  0  0  0  0  0  0  0  0
  1  2  2  0
  2  3  1  0
  2  4  1  0
  4  5  1  0
  5  6  1  0
  6  7  2  0
  7  8  1  0
  8  9  2  0
  9 10  1  0
 10 11  1  0
 11 12  2  0
 12 13  1  0
 13 14  2  0
 14 15  1  0
 15 16  2  0
 16 17  1  0
 17 18  2  0
 11 19  1  0
 19 20  1  0
 20 21  2  0
 21 22  1  0
 22 23  2  0
 23 24  1  0
 24 25  2  0
 19 26  1  0
 26 27  2  0
  7 28  1  0
 28 29  2  0
 29 30  1  0
 30 31  2  0
 31 32  1  0
 32 33  2  0
 33  5  1  0
 26  9  1  0
 33 28  1  0
 18 13  1  0
 25 20  1  0
  4 34  1  0
  4 35  1  0
  6 36  1  0
  8 37  1  0
 14 38  1  0
 15 39  1  0
 16 40  1  0
 17 41  1  0
 18 42  1  0
 21 43  1  0
 22 44  1  0
 23 45  1  0
 24 46  1  0
 25 47  1  0
 29 48  1  0
 30 49  1  0
 31 50  1  0
 32 51  1  0
M  CHG  1   3  -1
M  END
>  <vina_affinity>  (1) 
-7.215

$$$$
dec_C21235388
     RDKit          3D

 39 41  0  0  0  0  0  0  0  0999 V2000
    6.2570   26.6930    7.4610 C   0  0  0  0  0  0  0  0  0  0  0  0
    4.9800   27.4520    7.6370 C   0  0  0  0  0  0  0  0  0  0  0  0
    4.5500   28.2970    6.8740 O   0  0  0  0  0  0  0  0  0  0  0  0
    4.1070   27.1040    8.8830 N   0  0  0  0  0  0  0  0  0  0  0  0
    3.0320   27.6910    9.2790 C   0  0  0  0  0  0  0  0  0  0  0  0
    2.3690   27.1460   10.5090 C   0  0  0  0  0  0  0  0  0  0  0  0
    1.2850   27.7390   11.0270 C   0  0  0  0  0  0  0  0  0  0  0  0
    0.7100   28.9350   10.4280 C   0  0  0  0  0  0  0  0  0  0  0  0
   -0.3330   29.5950   10.9890 C   0  0  0  0  0  0  0  0  0  0  0  0
   -1.0340   29.2140   12.2770 C   0  0  0  0  0  0  0  0  0  0  0  0
   -1.9090   28.0930   12.0690 O   0  0  0  0  0  0  0  0  0  0  0  0
   -1.5760   26.9900   12.8120 C   0  0  0  0  0  0  0  0  0  0  0  0
   -1.5180   27.0680   14.2070 C   0  0  0  0  0  0  0  0  0  0  0  0
   -1.2110   25.9320   14.9590 C   0  0  0  0  0  0  0  0  0  0  0  0
   -0.9830   24.7170   14.3150 C   0  0  0  0  0  0  0  0  0  0  0  0
   -0.5670   23.1810   15.3350 Br  0  0  0  0  0  0  0  0  0  0  0  0
   -1.0720   24.6190   12.9270 C   0  0  0  0  0  0  0  0  0  0  0  0
   -1.3810   25.7570   12.1770 C   0  0  0  0  0  0  0  0  0  0  0  0
   -1.5200   25.5720   10.2920 Br  0  0  0  0  0  0  0  0  0  0  0  0
   -0.8440   30.7870   10.3340 C   0  0  0  0  0  0  0  0  0  0  0  0
   -0.3110   31.2160    9.1850 C   0  0  0  0  0  0  0  0  0  0  0  0
   -0.8090   32.3390    8.5760 O   0  0  0  0  0  0  0  0  0  0  0  0
    0.7430   30.5630    8.5760 O   0  0  0  0  0  0  0  0  0  0  0  0
    1.3040   29.4450    9.1880 C   0  0  0  0  0  0  0  0  0  0  0  0
    2.3850   28.8700    8.6390 C   0  0  0  0  0  0  0  0  0  0  0  0
    6.6749   26.4446    8.4477 H   0  0  0  0  0  0  0  0  0  0  0  0
    6.0587   25.7661    6.9029 H   0  0  0  0  0  0  0  0  0  0  0  0
    6.9765   27.3102    6.9029 H   0  0  0  0  0  0  0  0  0  0  0  0
    4.4790   26.3210    9.4160 H   0  0  0  0  0  0  0  0  0  0  0  0
    2.7785   26.2468   10.9926 H   0  0  0  0  0  0  0  0  0  0  0  0
    0.8181   27.3119   11.9267 H   0  0  0  0  0  0  0  0  0  0  0  0
   -0.2803   28.9480   13.0328 H   0  0  0  0  0  0  0  0  0  0  0  0
   -1.6333   30.0706   12.6192 H   0  0  0  0  0  0  0  0  0  0  0  0
   -1.7144   28.0250   14.7125 H   0  0  0  0  0  0  0  0  0  0  0  0
   -1.1493   25.9958   16.0554 H   0  0  0  0  0  0  0  0  0  0  0  0
   -0.9005   23.6545   12.4267 H   0  0  0  0  0  0  0  0  0  0  0  0
   -1.6780   31.3424   10.7880 H   0  0  0  0  0  0  0  0  0  0  0  0
   -1.3700   32.7700    9.2430 H   0  0  0  0  0  0  0  0  0  0  0  0
    2.7989   29.2749    7.7037 H   0  0  0  0  0  0  0  0  0  0  0  0
  1  2  1  0
  2  3  2  0
  2  4  1  0
  4  5  2  3
  5  6  1  0
  6  7  2  0
  7  8  1  0
  8  9  2  0
  9 10  1  0
 10 11  1  0
 11 12  1  0
 12 13  2  0
 13 14  1  0
 14 15  2  0
 15 16  1  0
 15 17  1  0
 17 18  2  0
 18 19  1  0
  9 20  1  0
 20 21  2  0
 21 22  1  0
 21 23  1  0
 23 24  1  0
 24 25  2  0
 25  5  1  0
 24  8  1  0
 18 12  1  0
  1 26  1  0
  1 27  1  0
  1 28  1  0
  4 29  1  0
  6 30  1  0
  7 31  1  0
 10 32  1  0
 10 33  1  0
 13 34  1  0
 14 35  1  0
 17 36  1  0
 20 37  1  0
 22 38  1  0
 25 39  1  0
M  CHG  1   4   1
M  END
>  <vina_affinity>  (1) 
-8.543

$$$$
dec_C06870459
     RDKit          3D

 42 44  0  0  0  0  0  0  0  0999 V2000
   -5.4190   22.8340   17.4870 C   0  0  0  0  0  0  0  0  0  0  0  0
   -4.9290   23.4810   16.2040 C   0  0  0  0  0  0  0  0  0  0  0  0
   -3.5750   23.1180   15.9370 O   0  0  0  0  0  0  0  0  0  0  0  0
   -2.7450   24.0390   15.3650 C   0  0  0  0  0  0  0  0  0  0  0  0
   -3.2510   25.3370   15.3330 C   0  0  0  0  0  0  0  0  0  0  0  0
   -2.5120   26.3880   14.7710 C   0  0  0  0  0  0  0  0  0  0  0  0
   -1.2600   26.1610   14.1980 C   0  0  0  0  0  0  0  0  0  0  0  0
   -0.4330   27.1600   13.6840 N   0  0  0  0  0  0  0  0  0  0  0  0
   -0.9640   28.2290   12.8440 C   0  0  2  0  0  0  0  0  0  0  0  0
   -2.0980   27.4640   11.6740 S   0  0  0  0  0  0  0  0  0  0  0  0
   -0.9130   27.5100   10.3810 C   0  0  0  0  0  0  0  0  0  0  0  0
   -1.1450   26.9380    9.3270 O   0  0  0  0  0  0  0  0  0  0  0  0
    0.2010   28.2300   10.7430 N   0  0  0  0  0  0  0  0  0  0  0  0
    1.2630   28.5180    9.8280 C   0  0  0  0  0  0  0  0  0  0  0  0
    2.4430   27.7520    9.8730 C   0  0  0  0  0  0  0  0  0  0  0  0
    3.4870   27.9660    8.9700 C   0  0  0  0  0  0  0  0  0  0  0  0
    3.3750   28.9550    8.0040 C   0  0  0  0  0  0  0  0  0  0  0  0
    2.2290   29.7450    7.9560 C   0  0  0  0  0  0  0  0  0  0  0  0
    1.1750   29.5590    8.8740 C   0  0  0  0  0  0  0  0  0  0  0  0
    0.0280   30.5340    8.7920 C   0  0  0  0  0  0  0  0  0  0  0  0
    0.1110   28.8670   11.9700 C   0  0  0  0  0  0  0  0  0  0  0  0
    0.7450   29.8610   12.3210 O   0  0  0  0  0  0  0  0  0  0  0  0
   -0.7510   24.8560   14.2670 C   0  0  0  0  0  0  0  0  0  0  0  0
   -1.4850   23.8010   14.8290 C   0  0  0  0  0  0  0  0  0  0  0  0
   -5.0082   23.3764   18.3513 H   0  0  0  0  0  0  0  0  0  0  0  0
   -6.5179   22.8706   17.5197 H   0  0  0  0  0  0  0  0  0  0  0  0
   -5.0859   21.7861   17.5197 H   0  0  0  0  0  0  0  0  0  0  0  0
   -5.5626   23.1492   15.3683 H   0  0  0  0  0  0  0  0  0  0  0  0
   -4.9847   24.5737   16.3172 H   0  0  0  0  0  0  0  0  0  0  0  0
   -4.2461   25.5405   15.7554 H   0  0  0  0  0  0  0  0  0  0  0  0
   -2.9257   27.4072   14.7820 H   0  0  0  0  0  0  0  0  0  0  0  0
    0.4130   26.7670   13.2780 H   0  0  0  0  0  0  0  0  0  0  0  0
   -1.4124   28.9846   13.5059 H   0  0  0  0  0  0  0  0  0  0  0  0
    2.5454   26.9669   10.6367 H   0  0  0  0  0  0  0  0  0  0  0  0
    4.3972   27.3507    9.0249 H   0  0  0  0  0  0  0  0  0  0  0  0
    4.1872   29.1146    7.2795 H   0  0  0  0  0  0  0  0  0  0  0  0
    2.1446   30.5281    7.1881 H   0  0  0  0  0  0  0  0  0  0  0  0
   -0.2939   30.8077    9.8076 H   0  0  0  0  0  0  0  0  0  0  0  0
    0.3522   31.4372    8.2543 H   0  0  0  0  0  0  0  0  0  0  0  0
   -0.8112   30.0685    8.2543 H   0  0  0  0  0  0  0  0  0  0  0  0
    0.2541   24.6537   13.8684 H   0  0  0  0  0  0  0  0  0  0  0  0
   -1.0633   22.7852   14.8455 H   0  0  0  0  0  0  0  0  0  0  0  0
  1  2  1  0
  2  3  1  0
  3  4  1  0
  4  5  2  0
  5  6  1  0
  6  7  2  0
  7  8  1  0
  8  9  1  0
  9 10  1  0
 10 11  1  0
 11 12  2  0
 11 13  1  0
 13 14  1  0
 14 15  2  0
 15 16  1  0
 16 17  2  0
 17 18  1  0
 18 19  2  0
 19 20  1  0
 13 21  1  0
 21 22  2  0
  7 23  1  0
 23 24  2  0
 24  4  1  0
 21  9  1  0
 19 14  1  0
  1 25  1  0
  1 26  1  0
  1 27  1  0
  2 28  1  0
  2 29  1  0
  5 30  1  0
  6 31  1  0
  8 32  1  0
  9 33  1  1
 15 34  1  0
 16 35  1  0
 17 36  1  0
 18 37  1  0
 20 38  1  0
 20 39  1  0
 20 40  1  0
 23 41  1  0
 24 42  1  0
M  END
>  <vina_affinity>  (1) 
-7.926

$$$$
dec_C04318568
     RDKit          3D

 41 43  0  0  0  0  0  0  0  0999 V2000
   -1.5200   32.5370    9.6060 C   0  0  0  0  0  0  0  0  0  0  0  0
   -0.4940   31.5260    9.6110 N   0  0  0  0  0  0  0  0  0  0  0  0
   -0.8180   30.1940    9.4750 C   0  0  0  0  0  0  0  0  0  0  0  0
   -1.9710   29.8100    9.2890 O   0  0  0  0  0  0  0  0  0  0  0  0
    0.2920   29.2470    9.6550 C   0  0  0  0  0  0  0  0  0  0  0  0
    0.1920   28.1980   10.5650 C   0  0  0  0  0  0  0  0  0  0  0  0
   -0.9250   27.8980   11.3320 N   0  0  0  0  0  0  0  0  0  0  0  0
   -1.8080   26.8470   11.1680 C   0  0  0  0  0  0  0  0  0  0  0  0
   -1.7730   25.9650   10.3190 O   0  0  0  0  0  0  0  0  0  0  0  0
   -2.9440   26.9200   12.1770 C   0  0  0  0  0  0  0  0  0  0  0  0
   -2.7090   25.9510   13.3270 C   0  0  2  0  0  0  0  0  0  0  0  0
   -4.2630   25.5680   14.2160 S   0  0  0  0  0  0  0  0  0  0  0  0
   -3.5320   25.8310   15.7810 C   0  0  0  0  0  0  0  0  0  0  0  0
   -4.1450   25.7780   16.8330 O   0  0  0  0  0  0  0  0  0  0  0  0
   -2.2320   26.1810   15.6460 N   0  0  0  0  0  0  0  0  0  0  0  0
   -1.8350   26.5690   14.4010 C   0  0  0  0  0  0  0  0  0  0  0  0
   -0.9080   27.3450   14.2120 O   0  0  0  0  0  0  0  0  0  0  0  0
    1.6100   27.2750   10.6610 S   0  0  0  0  0  0  0  0  0  0  0  0
    2.3640   28.1790    9.4430 C   0  0  0  0  0  0  0  0  0  0  0  0
    1.5660   29.2010    8.9610 C   0  0  0  0  0  0  0  0  0  0  0  0
    2.0450   30.0840    7.8410 C   0  0  0  0  0  0  0  0  0  0  0  0
    3.2270   29.4650    7.0790 C   0  0  0  0  0  0  0  0  0  0  0  0
    4.2910   28.9280    8.0430 C   0  0  0  0  0  0  0  0  0  0  0  0
    3.7300   27.8170    8.9400 C   0  0  0  0  0  0  0  0  0  0  0  0
   -1.7837   32.7969   10.6418 H   0  0  0  0  0  0  0  0  0  0  0  0
   -1.1495   33.4328    9.0862 H   0  0  0  0  0  0  0  0  0  0  0  0
   -2.4103   32.1533    9.0862 H   0  0  0  0  0  0  0  0  0  0  0  0
    0.3730   31.7420   10.0810 H   0  0  0  0  0  0  0  0  0  0  0  0
   -1.0970   28.5600   12.0900 H   0  0  0  0  0  0  0  0  0  0  0  0
   -3.0074   27.9435   12.5751 H   0  0  0  0  0  0  0  0  0  0  0  0
   -3.8822   26.6466   11.6719 H   0  0  0  0  0  0  0  0  0  0  0  0
   -2.2555   25.0637   12.8612 H   0  0  0  0  0  0  0  0  0  0  0  0
   -1.7640   26.5680   16.4510 H   0  0  0  0  0  0  0  0  0  0  0  0
    1.2151   30.2451    7.1372 H   0  0  0  0  0  0  0  0  0  0  0  0
    2.3864   31.0325    8.2811 H   0  0  0  0  0  0  0  0  0  0  0  0
    2.8576   28.6373    6.4558 H   0  0  0  0  0  0  0  0  0  0  0  0
    3.6859   30.2466    6.4557 H   0  0  0  0  0  0  0  0  0  0  0  0
    5.1315   28.5251    7.4588 H   0  0  0  0  0  0  0  0  0  0  0  0
    4.6219   29.7563    8.6868 H   0  0  0  0  0  0  0  0  0  0  0  0
    3.6658   26.8838    8.3612 H   0  0  0  0  0  0  0  0  0  0  0  0
    4.4007   27.6868    9.8021 H   0  0  0  0  0  0  0  0  0  0  0  0
  1  2  1  0
  2  3  1  0
  3  4  2  0
  3  5  1  0
  5  6  2  0
  6  7  1  0
  7  8  1  0
  8  9  2  0
  8 10  1  0
 10 11  1  0
 11 12  1  0
 12 13  1  0
 13 14  2  0
 13 15  1  0
 15 16  1  0
 16 17  2  0
  6 18  1  0
 18 19  1  0
 19 20  2  0
 20 21  1  0
 21 22  1  0
 22 23  1  0
 23 24  1  0
 20  5  1  0
 16 11  1  0
 24 19  1  0
  1 25  1  0
  1 26  1  0
  1 27  1  0
  2 28  1  0
  7 29  1  0
 10 30  1  0
 10 31  1  0
 11 32  1  6
 15 33  1  0
 21 34  1  0
 21 35  1  0
 22 36  1  0
 22 37  1  0
 23 38  1  0
 23 39  1  0
 24 40  1  0
 24 41  1  0
M  END
>  <vina_affinity>  (1) 
-7.610

$$$$
dec_C38776689
     RDKit          3D

 60 63  0  0  0  0  0  0  0  0999 V2000
   -1.0690   20.4150   12.3740 C   0  0  0  0  0  0  0  0  0  0  0  0
    0.0870   20.1710   13.7480 S   0  0  0  0  0  0  0  0  0  0  0  0
   -0.1800   21.7300   14.6430 C   0  0  0  0  0  0  0  0  0  0  0  0
    0.2380   22.9940   13.8860 C   0  0  0  0  0  0  0  0  0  0  0  0
   -0.8710   24.0220   13.5720 C   0  0  2  0  0  0  0  0  0  0  0  0
   -2.2100   23.5560   13.9630 N   0  0  0  0  0  0  0  0  0  0  0  0
   -2.8450   24.0690   15.0810 C   0  0  0  0  0  0  0  0  0  0  0  0
   -2.6330   25.1920   15.5320 O   0  0  0  0  0  0  0  0  0  0  0  0
   -3.8770   23.2010   15.7120 C   0  0  0  0  0  0  0  0  0  0  0  0
   -5.1620   23.7280   15.9020 C   0  0  0  0  0  0  0  0  0  0  0  0
   -6.1620   22.9410   16.4800 C   0  0  0  0  0  0  0  0  0  0  0  0
   -5.8740   21.6340   16.8540 C   0  0  0  0  0  0  0  0  0  0  0  0
   -6.8330   20.8790   17.4020 F   0  0  0  0  0  0  0  0  0  0  0  0
   -4.6060   21.0950   16.6600 C   0  0  0  0  0  0  0  0  0  0  0  0
   -3.6010   21.8770   16.0850 C   0  0  0  0  0  0  0  0  0  0  0  0
   -0.7290   24.4700   12.0940 C   0  0  0  0  0  0  0  0  0  0  0  0
    0.1720   24.0020   11.3840 O   0  0  0  0  0  0  0  0  0  0  0  0
   -1.5360   25.4700   11.5580 N   0  0  0  0  0  0  0  0  0  0  0  0
   -1.5210   25.6810   10.1060 C   0  0  0  0  0  0  0  0  0  0  0  0
   -0.8030   26.9820    9.7120 C   0  0  0  0  0  0  0  0  0  0  0  0
    0.1050   27.5450   10.8270 C   0  0  0  0  0  0  0  0  0  0  0  0
   -0.7260   27.7000   12.1390 C   0  0  0  0  0  0  0  0  0  0  0  0
   -1.8530   26.6710   12.3070 C   0  0  0  0  0  0  0  0  0  0  0  0
    1.2570   26.5440   11.0570 N   0  0  0  0  0  0  0  0  0  0  0  0
    2.3700   26.4820   10.0570 C   0  0  0  0  0  0  0  0  0  0  0  0
    2.9830   27.8480    9.8450 C   0  0  0  0  0  0  0  0  0  0  0  0
    1.8580   28.7640    9.5430 C   0  0  0  0  0  0  0  0  0  0  0  0
    1.6980   29.4610    8.4730 N   0  0  0  0  0  0  0  0  0  0  0  0
    0.4980   30.1030    8.6640 C   0  0  0  0  0  0  0  0  0  0  0  0
   -0.1460   29.8350    9.7620 N   0  0  0  0  0  0  0  0  0  0  0  0
    0.7390   28.9200   10.5080 C   0  0  1  0  0  0  0  0  0  0  0  0
   -2.0723   20.6268   12.7722 H   0  0  0  0  0  0  0  0  0  0  0  0
   -0.7327   21.2620   11.7579 H   0  0  0  0  0  0  0  0  0  0  0  0
   -1.1037   19.5044   11.7579 H   0  0  0  0  0  0  0  0  0  0  0  0
   -1.2523   21.8105   14.8746 H   0  0  0  0  0  0  0  0  0  0  0  0
    0.4592   21.6831   15.5370 H   0  0  0  0  0  0  0  0  0  0  0  0
    1.0027   23.5047   14.4896 H   0  0  0  0  0  0  0  0  0  0  0  0
    0.5838   22.6379   12.9044 H   0  0  0  0  0  0  0  0  0  0  0  0
   -0.7408   24.9179   14.1969 H   0  0  0  0  0  0  0  0  0  0  0  0
   -2.3000   22.5460   13.8990 H   0  0  0  0  0  0  0  0  0  0  0  0
   -5.3834   24.7612   15.5961 H   0  0  0  0  0  0  0  0  0  0  0  0
   -7.1696   23.3532   16.6377 H   0  0  0  0  0  0  0  0  0  0  0  0
   -4.3956   20.0573   16.9581 H   0  0  0  0  0  0  0  0  0  0  0  0
   -2.5973   21.4562   15.9254 H   0  0  0  0  0  0  0  0  0  0  0  0
   -1.0042   24.8341    9.6310 H   0  0  0  0  0  0  0  0  0  0  0  0
   -2.5646   25.7569    9.7666 H   0  0  0  0  0  0  0  0  0  0  0  0
   -0.1833   26.7831    8.8252 H   0  0  0  0  0  0  0  0  0  0  0  0
   -1.5807   27.7349    9.5163 H   0  0  0  0  0  0  0  0  0  0  0  0
   -0.0402   27.6003   12.9933 H   0  0  0  0  0  0  0  0  0  0  0  0
   -1.2098   28.6865   12.0869 H   0  0  0  0  0  0  0  0  0  0  0  0
   -1.9620   26.4192   13.3722 H   0  0  0  0  0  0  0  0  0  0  0  0
   -2.7940   27.0974   11.9293 H   0  0  0  0  0  0  0  0  0  0  0  0
    1.6280   26.5920   12.0300 H   0  0  0  0  0  0  0  0  0  0  0  0
    0.8820   25.5750   11.0810 H   0  0  0  0  0  0  0  0  0  0  0  0
    3.1450   25.7926   10.4232 H   0  0  0  0  0  0  0  0  0  0  0  0
    1.9617   26.1279    9.0989 H   0  0  0  0  0  0  0  0  0  0  0  0
    3.5079   28.1757   10.7545 H   0  0  0  0  0  0  0  0  0  0  0  0
    3.7191   27.8344    9.0277 H   0  0  0  0  0  0  0  0  0  0  0  0
    0.1002   30.8112    7.9222 H   0  0  0  0  0  0  0  0  0  0  0  0
    1.0073   29.3107   11.5007 H   0  0  0  0  0  0  0  0  0  0  0  0
  1  2  1  0
  2  3  1  0
  3  4  1  0
  4  5  1  0
  5  6  1  0
  6  7  1  0
  7  8  2  0
  7  9  1  0
  9 10  2  0
 10 11  1  0
 11 12  2  0
 12 13  1  0
 12 14  1  0
 14 15  2  0
  5 16  1  0
 16 17  2  0
 16 18  1  0
 18 19  1  0
 19 20  1  0
 20 21  1  0
 21 22  1  0
 22 23  1  0
 21 24  1  0
 24 25  1  0
 25 26  1  0
 26 27  1  0
 27 28  2  0
 28 29  1  0
 29 30  2  0
 30 31  1  0
 15  9  1  0
 23 18  1  0
 31 27  1  0
 31 21  1  0
  1 32  1  0
  1 33  1  0
  1 34  1  0
  3 35  1  0
  3 36  1  0
  4 37  1  0
  4 38  1  0
  5 39  1  1
  6 40  1  0
 10 41  1  0
 11 42  1  0
 14 43  1  0
 15 44  1  0
 19 45  1  0
 19 46  1  0
 20 47  1  0
 20 48  1  0
 22 49  1  0
 22 50  1  0
 23 51  1  0
 23 52  1  0
 24 53  1  0
 24 54  1  0
 25 55  1  0
 25 56  1  0
 26 57  1  0
 26 58  1  0
 29 59  1  0
 31 60  1  1
M  CHG  1  24   1
M  END
>  <vina_affinity>  (1) 
-7.681

$$$$
dec_C38752897
     RDKit          3D

 43 45  0  0  0  0  0  0  0  0999 V2000
   -4.9470   23.6930   16.0520 C   0  0  0  0  0  0  0  0  0  0  0  0
   -3.7700   24.4930   15.6240 C   0  0  0  0  0  0  0  0  0  0  0  0
   -2.6810   24.0570   14.9940 C   0  0  0  0  0  0  0  0  0  0  0  0
   -1.8110   25.2570   14.8140 C   0  0  1  0  0  0  0  0  0  0  0  0
   -1.4620   25.6390   13.3470 C   0  0  2  0  0  0  0  0  0  0  0  0
   -0.0120   25.8350   13.0870 N   0  0  0  0  0  0  0  0  0  0  0  0
    0.1190   27.1630   12.4650 N   0  0  0  0  0  0  0  0  0  0  0  0
   -1.2080   27.4200   11.9090 C   0  0  2  0  0  0  0  0  0  0  0  0
   -1.4290   29.2010   11.6600 S   0  0  0  0  0  0  0  0  0  0  0  0
   -1.4360   29.2260    9.8420 C   0  0  0  0  0  0  0  0  0  0  0  0
   -0.4140   30.1900    9.2530 C   0  0  0  0  0  0  0  0  0  0  0  0
   -0.6530   31.3740    9.0130 O   0  0  0  0  0  0  0  0  0  0  0  0
    0.9440   29.6560    8.9240 C   0  0  0  0  0  0  0  0  0  0  0  0
    1.6070   30.1670    7.8010 C   0  0  0  0  0  0  0  0  0  0  0  0
    2.8770   29.6990    7.4520 C   0  0  0  0  0  0  0  0  0  0  0  0
    3.5060   28.7180    8.2260 C   0  0  0  0  0  0  0  0  0  0  0  0
    4.8550   28.1900    7.8320 C   0  0  0  0  0  0  0  0  0  0  0  0
    2.8350   28.1930    9.3360 C   0  0  0  0  0  0  0  0  0  0  0  0
    1.5640   28.6600    9.6880 C   0  0  0  0  0  0  0  0  0  0  0  0
   -2.1040   26.9080   12.9490 N   0  0  0  0  0  0  0  0  0  0  0  0
   -3.4760   26.6930   12.4620 N   0  0  0  0  0  0  0  0  0  0  0  0
   -2.6480   26.3320   15.4360 N   0  0  0  0  0  0  0  0  0  0  0  0
   -3.7280   25.8410   15.8700 N   0  0  0  0  0  0  0  0  0  0  0  0
   -4.9904   23.6635   17.1507 H   0  0  0  0  0  0  0  0  0  0  0  0
   -5.8658   24.1545   15.6610 H   0  0  0  0  0  0  0  0  0  0  0  0
   -4.8560   22.6689   15.6610 H   0  0  0  0  0  0  0  0  0  0  0  0
   -2.4668   23.0269   14.6729 H   0  0  0  0  0  0  0  0  0  0  0  0
   -0.8181   25.0842   15.2548 H   0  0  0  0  0  0  0  0  0  0  0  0
   -1.8282   24.7768   12.7704 H   0  0  0  0  0  0  0  0  0  0  0  0
    0.5030   25.7580   13.9680 H   0  0  0  0  0  0  0  0  0  0  0  0
    0.2210   27.8800   13.1890 H   0  0  0  0  0  0  0  0  0  0  0  0
   -1.3871   26.9501   10.9307 H   0  0  0  0  0  0  0  0  0  0  0  0
   -1.2121   28.2127    9.4772 H   0  0  0  0  0  0  0  0  0  0  0  0
   -2.4314   29.5684    9.5228 H   0  0  0  0  0  0  0  0  0  0  0  0
    1.1243   30.9429    7.1887 H   0  0  0  0  0  0  0  0  0  0  0  0
    3.3845   30.1042    6.5641 H   0  0  0  0  0  0  0  0  0  0  0  0
    5.4379   27.9618    8.7365 H   0  0  0  0  0  0  0  0  0  0  0  0
    4.7304   27.2743    7.2354 H   0  0  0  0  0  0  0  0  0  0  0  0
    5.3851   28.9470    7.2354 H   0  0  0  0  0  0  0  0  0  0  0  0
    3.3116   27.4052    9.9379 H   0  0  0  0  0  0  0  0  0  0  0  0
    1.0506   28.2436   10.5672 H   0  0  0  0  0  0  0  0  0  0  0  0
   -3.7190   25.7060   12.6080 H   0  0  0  0  0  0  0  0  0  0  0  0
   -4.1640   27.1720   13.0650 H   0  0  0  0  0  0  0  0  0  0  0  0
  1  2  1  0
  2  3  2  0
  3  4  1  0
  4  5  1  0
  5  6  1  0
  6  7  1  0
  7  8  1  0
  8  9  1  0
  9 10  1  0
 10 11  1  0
 11 12  2  0
 11 13  1  0
 13 14  2  0
 14 15  1  0
 15 16  2  0
 16 17  1  0
 16 18  1  0
 18 19  2  0
  8 20  1  0
 20 21  1  0
  4 22  1  0
 22 23  2  0
 23  2  1  0
 20  5  1  0
 19 13  1  0
  1 24  1  0
  1 25  1  0
  1 26  1  0
  3 27  1  0
  4 28  1  1
  5 29  1  6
  6 30  1  0
  7 31  1  0
  8 32  1  6
 10 33  1  0
 10 34  1  0
 14 35  1  0
 15 36  1  0
 17 37  1  0
 17 38  1  0
 17 39  1  0
 18 40  1  0
 19 41  1  0
 21 42  1  0
 21 43  1  0
M  END
>  <vina_affinity>  (1) 
-7.904

$$$$
dec_C35079618
     RDKit          3D

 40 41  0  0  0  0  0  0  0  0999 V2000
   -3.0210   27.4050   11.5860 C   0  0  0  0  0  0  0  0  0  0  0  0
   -1.8810   28.1930   12.2030 C   0  0  0  0  0  0  0  0  0  0  0  0
   -1.5060   29.2770   11.3400 O   0  0  0  0  0  0  0  0  0  0  0  0
   -0.2230   29.6980   11.4500 C   0  0  0  0  0  0  0  0  0  0  0  0
    0.3630   29.9900   12.4820 O   0  0  0  0  0  0  0  0  0  0  0  0
    0.4380   29.6750   10.1280 C   0  0  0  0  0  0  0  0  0  0  0  0
    0.0340   30.4010    9.0640 C   0  0  0  0  0  0  0  0  0  0  0  0
   -1.1240   31.3660    9.0740 C   0  0  0  0  0  0  0  0  0  0  0  0
    0.7430   30.3170    7.8750 N   0  0  0  0  0  0  0  0  0  0  0  0
    1.9630   29.6930    7.7230 C   0  0  0  0  0  0  0  0  0  0  0  0
    2.6050   29.8790    6.5210 N   0  0  0  0  0  0  0  0  0  0  0  0
    2.4590   28.9580    8.7490 C   0  0  0  0  0  0  0  0  0  0  0  0
    3.7370   28.3320    8.6670 C   0  0  0  0  0  0  0  0  0  0  0  0
    4.7720   27.8150    8.5860 N   0  0  0  0  0  0  0  0  0  0  0  0
    1.6760   28.7960   10.0540 C   0  0  2  0  0  0  0  0  0  0  0  0
    1.3210   27.3250   10.3060 C   0  0  0  0  0  0  0  0  0  0  0  0
    0.1610   26.7500    9.7540 C   0  0  0  0  0  0  0  0  0  0  0  0
   -0.1560   25.4130    9.9960 C   0  0  0  0  0  0  0  0  0  0  0  0
    0.6900   24.6360   10.7970 C   0  0  0  0  0  0  0  0  0  0  0  0
    0.3570   23.2300   11.0580 N   0  0  0  0  0  0  0  0  0  0  0  0
   -0.7360   22.9830   11.5860 O   0  0  0  0  0  0  0  0  0  0  0  0
    1.1900   22.3710   10.7300 O   0  0  0  0  0  0  0  0  0  0  0  0
    1.8460   25.1920   11.3580 C   0  0  0  0  0  0  0  0  0  0  0  0
    2.1570   26.5320   11.1110 C   0  0  0  0  0  0  0  0  0  0  0  0
   -3.6435   26.9747   12.3843 H   0  0  0  0  0  0  0  0  0  0  0  0
   -3.6337   28.0733   10.9631 H   0  0  0  0  0  0  0  0  0  0  0  0
   -2.6124   26.5956   10.9631 H   0  0  0  0  0  0  0  0  0  0  0  0
   -2.2017   28.5961   13.1749 H   0  0  0  0  0  0  0  0  0  0  0  0
   -1.0164   27.5270   12.3405 H   0  0  0  0  0  0  0  0  0  0  0  0
   -1.4004   31.5963   10.1135 H   0  0  0  0  0  0  0  0  0  0  0  0
   -0.8333   32.2929    8.5579 H   0  0  0  0  0  0  0  0  0  0  0  0
   -1.9833   30.9130    8.5579 H   0  0  0  0  0  0  0  0  0  0  0  0
    0.5530   31.0340    7.1820 H   0  0  0  0  0  0  0  0  0  0  0  0
    2.1540   30.5880    5.9490 H   0  0  0  0  0  0  0  0  0  0  0  0
    2.7660   29.0290    5.9830 H   0  0  0  0  0  0  0  0  0  0  0  0
    2.3456   29.1404   10.8559 H   0  0  0  0  0  0  0  0  0  0  0  0
   -0.5028   27.3613    9.1250 H   0  0  0  0  0  0  0  0  0  0  0  0
   -1.0647   24.9720    9.5604 H   0  0  0  0  0  0  0  0  0  0  0  0
    2.5053   24.5781   11.9892 H   0  0  0  0  0  0  0  0  0  0  0  0
    3.0649   26.9704   11.5509 H   0  0  0  0  0  0  0  0  0  0  0  0
  1  2  1  0
  2  3  1  0
  3  4  1  0
  4  5  2  0
  4  6  1  0
  6  7  2  0
  7  8  1  0
  7  9  1  0
  9 10  1  0
 10 11  1  0
 10 12  2  0
 12 13  1  0
 13 14  3  0
 12 15  1  0
 15 16  1  0
 16 17  2  0
 17 18  1  0
 18 19  2  0
 19 20  1  0
 20 21  2  0
 20 22  1  0
 19 23  1  0
 23 24  2  0
 15  6  1  0
 24 16  1  0
  1 25  1  0
  1 26  1  0
  1 27  1  0
  2 28  1  0
  2 29  1  0
  8 30  1  0
  8 31  1  0
  8 32  1  0
  9 33  1  0
 11 34  1  0
 11 35  1  0
 15 36  1  1
 17 37  1  0
 18 38  1  0
 23 39  1  0
 24 40  1  0
M  CHG  2  20   1  22  -1
M  END
>  <vina_affinity>  (1) 
-6.959

$$$$
dec_C58023059
     RDKit          3D

 46 48  0  0  0  0  0  0  0  0999 V2000
    0.7760   24.0330   12.3360 C   0  0  0  0  0  0  0  0  0  0  0  0
   -0.4820   24.7580   12.6940 C   0  0  0  0  0  0  0  0  0  0  0  0
   -1.2460   24.4780   13.8780 C   0  0  0  0  0  0  0  0  0  0  0  0
   -2.3970   25.2340   13.9720 C   0  0  0  0  0  0  0  0  0  0  0  0
   -3.6890   25.3190   15.1890 S   0  0  0  0  0  0  0  0  0  0  0  0
   -3.3940   26.6950   16.1000 N   0  0  0  0  0  0  0  0  0  0  0  0
   -3.4920   24.1920   16.0670 O   0  0  0  0  0  0  0  0  0  0  0  0
   -4.8990   25.5670   14.4430 O   0  0  0  0  0  0  0  0  0  0  0  0
   -2.5650   26.2820   12.6390 S   0  0  0  0  0  0  0  0  0  0  0  0
   -1.0920   25.7550   11.9390 C   0  0  0  0  0  0  0  0  0  0  0  0
   -0.6690   26.3700   10.6830 C   0  0  0  0  0  0  0  0  0  0  0  0
   -1.0030   25.9290    9.5900 O   0  0  0  0  0  0  0  0  0  0  0  0
    0.1070   27.5030   10.8770 N   0  0  0  0  0  0  0  0  0  0  0  0
    0.7330   28.3010    9.8980 C   0  0  0  0  0  0  0  0  0  0  0  0
   -0.0720   29.2420    9.2360 C   0  0  0  0  0  0  0  0  0  0  0  0
    0.4600   30.0800    8.2520 C   0  0  0  0  0  0  0  0  0  0  0  0
    1.8090   29.9920    7.9200 C   0  0  0  0  0  0  0  0  0  0  0  0
    2.6140   29.0650    8.5860 C   0  0  0  0  0  0  0  0  0  0  0  0
    4.3420   28.9430    8.1670 S   0  0  0  0  0  0  0  0  0  0  0  0
    4.8550   27.8300    8.9410 O   0  0  0  0  0  0  0  0  0  0  0  0
    4.9040   30.2740    8.3360 O   0  0  0  0  0  0  0  0  0  0  0  0
    4.3390   28.5680    6.5940 N   0  0  0  0  0  0  0  0  0  0  0  0
    4.3360   27.3390    6.2300 C   0  0  0  0  0  0  0  0  0  0  0  0
    4.3230   27.0080    4.7490 C   0  0  0  0  0  0  0  0  0  0  0  0
    4.1050   25.4950    4.7620 C   0  0  0  0  0  0  0  0  0  0  0  0
    4.6830   25.0400    6.1000 C   0  0  0  0  0  0  0  0  0  0  0  0
    4.4000   26.1730    6.9530 N   0  0  0  0  0  0  0  0  0  0  0  0
    2.0850   28.2190    9.5700 C   0  0  0  0  0  0  0  0  0  0  0  0
    1.2996   23.7313   13.2552 H   0  0  0  0  0  0  0  0  0  0  0  0
    0.5284   23.1391   11.7448 H   0  0  0  0  0  0  0  0  0  0  0  0
    1.4254   24.6954   11.7448 H   0  0  0  0  0  0  0  0  0  0  0  0
   -0.9444   23.7367   14.6327 H   0  0  0  0  0  0  0  0  0  0  0  0
   -2.4350   26.7740   16.4260 H   0  0  0  0  0  0  0  0  0  0  0  0
   -4.1430   26.9190   16.7510 H   0  0  0  0  0  0  0  0  0  0  0  0
    0.1700   27.8370   11.8300 H   0  0  0  0  0  0  0  0  0  0  0  0
   -1.1379   29.3209    9.4959 H   0  0  0  0  0  0  0  0  0  0  0  0
   -0.1866   30.8082    7.7405 H   0  0  0  0  0  0  0  0  0  0  0  0
    2.2354   30.6439    7.1434 H   0  0  0  0  0  0  0  0  0  0  0  0
    3.5019   27.5254    4.2312 H   0  0  0  0  0  0  0  0  0  0  0  0
    5.2342   27.3197    4.2174 H   0  0  0  0  0  0  0  0  0  0  0  0
    3.0332   25.2555    4.6993 H   0  0  0  0  0  0  0  0  0  0  0  0
    4.5830   24.9950    3.9068 H   0  0  0  0  0  0  0  0  0  0  0  0
    4.1810   24.1312    6.4635 H   0  0  0  0  0  0  0  0  0  0  0  0
    5.7498   24.7757    6.0544 H   0  0  0  0  0  0  0  0  0  0  0  0
    4.8550   26.2150    7.8650 H   0  0  0  0  0  0  0  0  0  0  0  0
    2.7343   27.4931   10.0814 H   0  0  0  0  0  0  0  0  0  0  0  0
  1  2  1  0
  2  3  1  0
  3  4  2  0
  4  5  1  0
  5  6  1  0
  5  7  2  0
  5  8  2  0
  4  9  1  0
  9 10  1  0
 10 11  1  0
 11 12  2  0
 11 13  1  0
 13 14  1  0
 14 15  2  0
 15 16  1  0
 16 17  2  0
 17 18  1  0
 18 19  1  0
 19 20  2  0
 19 21  2  0
 19 22  1  0
 22 23  2  0
 23 24  1  0
 24 25  1  0
 25 26  1  0
 26 27  1  0
 18 28  2  0
 10  2  2  0
 28 14  1  0
 27 23  1  0
  1 29  1  0
  1 30  1  0
  1 31  1  0
  3 32  1  0
  6 33  1  0
  6 34  1  0
 13 35  1  0
 15 36  1  0
 16 37  1  0
 17 38  1  0
 24 39  1  0
 24 40  1  0
 25 41  1  0
 25 42  1  0
 26 43  1  0
 26 44  1  0
 27 45  1  0
 28 46  1  0
M  END
>  <vina_affinity>  (1) 
-8.410

$$$$
dec_C04632427
     RDKit          3D

 50 52  0  0  0  0  0  0  0  0999 V2000
   -3.3760   30.4440    9.7110 C   0  0  0  0  0  0  0  0  0  0  0  0
   -2.2270   30.9930   10.3430 O   0  0  0  0  0  0  0  0  0  0  0  0
   -1.1270   30.1880   10.4470 C   0  0  0  0  0  0  0  0  0  0  0  0
   -0.8580   29.4220    9.3090 C   0  0  0  0  0  0  0  0  0  0  0  0
    0.2360   28.5540    9.2760 C   0  0  0  0  0  0  0  0  0  0  0  0
    1.0640   28.4340   10.3960 C   0  0  0  0  0  0  0  0  0  0  0  0
    2.2280   27.5190   10.3130 C   0  0  0  0  0  0  0  0  0  0  0  0
    3.3540   27.9490   10.0790 O   0  0  0  0  0  0  0  0  0  0  0  0
    2.0550   26.0700   10.5060 C   0  0  0  0  0  0  0  0  0  0  0  0
    2.4980   25.0900    9.7110 C   0  0  0  0  0  0  0  0  0  0  0  0
    3.1510   25.1830    8.5220 O   0  0  0  0  0  0  0  0  0  0  0  0
    2.3040   23.8310   10.4570 C   0  0  0  0  0  0  0  0  0  0  0  0
    2.7070   22.7290   10.1150 O   0  0  0  0  0  0  0  0  0  0  0  0
    1.7010   24.1390   11.6550 N   0  0  0  0  0  0  0  0  0  0  0  0
    1.4230   23.1820   12.7110 C   0  0  0  0  0  0  0  0  0  0  0  0
    0.0780   22.4670   12.5710 C   0  0  0  0  0  0  0  0  0  0  0  0
   -0.7790   22.3520   13.8290 C   0  0  0  0  0  0  0  0  0  0  0  0
   -1.8970   23.3180   13.8430 N   0  0  0  0  0  0  0  0  0  0  0  0
    1.4770   25.5750   11.7950 C   0  0  2  0  0  0  0  0  0  0  0  0
    0.0150   25.9370   11.9640 C   0  0  0  0  0  0  0  0  0  0  0  0
   -0.4050   26.5510   13.1560 C   0  0  0  0  0  0  0  0  0  0  0  0
   -1.7380   26.9230   13.3360 C   0  0  0  0  0  0  0  0  0  0  0  0
   -2.6690   26.6940   12.3260 C   0  0  0  0  0  0  0  0  0  0  0  0
   -2.2680   26.1000   11.1330 C   0  0  0  0  0  0  0  0  0  0  0  0
   -0.9360   25.7280   10.9490 C   0  0  0  0  0  0  0  0  0  0  0  0
    0.8100   29.2120   11.5310 C   0  0  0  0  0  0  0  0  0  0  0  0
   -0.2880   30.0830   11.5550 C   0  0  0  0  0  0  0  0  0  0  0  0
   -4.0883   30.1036   10.4770 H   0  0  0  0  0  0  0  0  0  0  0  0
   -3.8516   31.2122    9.0835 H   0  0  0  0  0  0  0  0  0  0  0  0
   -3.0771   29.5914    9.0835 H   0  0  0  0  0  0  0  0  0  0  0  0
   -1.5147   29.5036    8.4303 H   0  0  0  0  0  0  0  0  0  0  0  0
    0.4456   27.9659    8.3703 H   0  0  0  0  0  0  0  0  0  0  0  0
    2.9680   24.3680    8.0160 H   0  0  0  0  0  0  0  0  0  0  0  0
    2.2192   22.4230   12.7071 H   0  0  0  0  0  0  0  0  0  0  0  0
    1.3818   23.7517   13.6511 H   0  0  0  0  0  0  0  0  0  0  0  0
   -0.5102   23.0108   11.8171 H   0  0  0  0  0  0  0  0  0  0  0  0
    0.3314   21.4310   12.3018 H   0  0  0  0  0  0  0  0  0  0  0  0
   -1.1920   21.3339   13.8825 H   0  0  0  0  0  0  0  0  0  0  0  0
   -0.1353   22.5736   14.6930 H   0  0  0  0  0  0  0  0  0  0  0  0
   -2.7550   22.8740   14.2400 H   0  0  0  0  0  0  0  0  0  0  0  0
   -1.6980   24.1110   14.4660 H   0  0  0  0  0  0  0  0  0  0  0  0
   -2.1350   23.6950   12.9190 H   0  0  0  0  0  0  0  0  0  0  0  0
    1.9297   26.0158   12.6954 H   0  0  0  0  0  0  0  0  0  0  0  0
    0.3252   26.7407   13.9565 H   0  0  0  0  0  0  0  0  0  0  0  0
   -2.0536   27.3977   14.2768 H   0  0  0  0  0  0  0  0  0  0  0  0
   -3.7206   26.9824   12.4710 H   0  0  0  0  0  0  0  0  0  0  0  0
   -3.0027   25.9235   10.3336 H   0  0  0  0  0  0  0  0  0  0  0  0
   -0.6262   25.2663    9.9999 H   0  0  0  0  0  0  0  0  0  0  0  0
    1.4730   29.1400   12.4058 H   0  0  0  0  0  0  0  0  0  0  0  0
   -0.4884   30.6865   12.4526 H   0  0  0  0  0  0  0  0  0  0  0  0
  1  2  1  0
  2  3  1  0
  3  4  2  0
  4  5  1  0
  5  6  2  0
  6  7  1  0
  7  8  2  0
  7  9  1  0
  9 10  2  0
 10 11  1  0
 10 12  1  0
 12 13  2  0
 12 14  1  0
 14 15  1  0
 15 16  1  0
 16 17  1  0
 17 18  1  0
 14 19  1  0
 19 20  1  0
 20 21  2  0
 21 22  1  0
 22 23  2  0
 23 24  1  0
 24 25  2  0
  6 26  1  0
 26 27  2  0
 27  3  1  0
 19  9  1  0
 25 20  1  0
  1 28  1  0
  1 29  1  0
  1 30  1  0
  4 31  1  0
  5 32  1  0
 11 33  1  0
 15 34  1  0
 15 35  1  0
 16 36  1  0
 16 37  1  0
 17 38  1  0
 17 39  1  0
 18 40  1  0
 18 41  1  0
 18 42  1  0
 19 43  1  1
 21 44  1  0
 22 45  1  0
 23 46  1  0
 24 47  1  0
 25 48  1  0
 26 49  1  0
 27 50  1  0
M  CHG  1  18   1
M  END
>  <vina_affinity>  (1) 
-6.406

$$$$
dec_C59368084
     RDKit          3D

 59 61  0  0  0  0  0  0  0  0999 V2000
    0.6900   19.8890   14.0250 C   0  0  0  0  0  0  0  0  0  0  0  0
    0.9910   21.2960   14.5220 C   0  0  0  0  0  0  0  0  0  0  0  0
   -0.2300   22.1740   14.5320 C   0  0  0  0  0  0  0  0  0  0  0  0
   -0.6330   23.0320   13.5150 C   0  0  0  0  0  0  0  0  0  0  0  0
   -0.0300   23.3680   12.2420 C   0  0  0  0  0  0  0  0  0  0  0  0
   -0.2690   22.6910   11.2420 O   0  0  0  0  0  0  0  0  0  0  0  0
    0.7460   24.5250   12.1590 N   0  0  0  0  0  0  0  0  0  0  0  0
    2.1760   24.5540   11.8840 C   0  0  0  0  0  0  0  0  0  0  0  0
    0.0400   25.8090   12.1400 C   0  0  0  0  0  0  0  0  0  0  0  0
   -0.0600   26.4370   10.7330 C   0  0  0  0  0  0  0  0  0  0  0  0
   -0.3560   25.7280    9.7660 O   0  0  0  0  0  0  0  0  0  0  0  0
    0.2170   27.8250   10.6260 N   0  0  0  0  0  0  0  0  0  0  0  0
    1.2650   28.2600    9.7380 C   0  0  0  0  0  0  0  0  0  0  0  0
    2.4780   27.5350    9.7590 C   0  0  0  0  0  0  0  0  0  0  0  0
    3.5740   27.8850    8.9710 C   0  0  0  0  0  0  0  0  0  0  0  0
    3.4910   28.9850    8.1380 C   0  0  0  0  0  0  0  0  0  0  0  0
    2.3130   29.7260    8.1030 C   0  0  0  0  0  0  0  0  0  0  0  0
    1.1890   29.3860    8.8900 C   0  0  0  0  0  0  0  0  0  0  0  0
    0.0920   30.2480    8.6870 N   0  0  0  0  0  0  0  0  0  0  0  0
   -1.1620   30.3080    9.1880 C   0  0  0  0  0  0  0  0  0  0  0  0
   -1.8950   31.2220    8.7960 O   0  0  0  0  0  0  0  0  0  0  0  0
   -1.6770   29.3090   10.1570 C   0  0  0  0  0  0  0  0  0  0  0  0
   -0.6740   28.8470   11.1920 C   0  0  2  0  0  0  0  0  0  0  0  0
    0.0510   29.9650   11.9560 C   0  0  0  0  0  0  0  0  0  0  0  0
   -1.8720   23.5070   13.8580 N   0  0  0  0  0  0  0  0  0  0  0  0
   -2.2200   23.1080   15.1250 C   0  0  0  0  0  0  0  0  0  0  0  0
   -3.4810   23.6100   15.7320 C   0  0  0  0  0  0  0  0  0  0  0  0
   -1.2240   22.2500   15.5840 C   0  0  0  0  0  0  0  0  0  0  0  0
   -1.1770   21.5400   16.8750 C   0  0  0  0  0  0  0  0  0  0  0  0
   -2.1460   20.4210   17.1500 C   0  0  0  0  0  0  0  0  0  0  0  0
   -0.3570   21.8460   17.7440 O   0  0  0  0  0  0  0  0  0  0  0  0
    0.5467   19.2190   14.8855 H   0  0  0  0  0  0  0  0  0  0  0  0
   -0.2254   19.9035   13.4152 H   0  0  0  0  0  0  0  0  0  0  0  0
    1.5312   19.5278   13.4152 H   0  0  0  0  0  0  0  0  0  0  0  0
    1.3882   21.2316   15.5458 H   0  0  0  0  0  0  0  0  0  0  0  0
    1.7218   21.7456   13.8337 H   0  0  0  0  0  0  0  0  0  0  0  0
    2.7318   24.5653   12.8332 H   0  0  0  0  0  0  0  0  0  0  0  0
    2.4563   23.6614   11.3056 H   0  0  0  0  0  0  0  0  0  0  0  0
    2.4199   25.4573   11.3056 H   0  0  0  0  0  0  0  0  0  0  0  0
   -0.9787   25.6518   12.5241 H   0  0  0  0  0  0  0  0  0  0  0  0
    0.6189   26.5054   12.7644 H   0  0  0  0  0  0  0  0  0  0  0  0
    2.5607   26.6613   10.4222 H   0  0  0  0  0  0  0  0  0  0  0  0
    4.4982   27.2899    9.0120 H   0  0  0  0  0  0  0  0  0  0  0  0
    4.3469   29.2719    7.5093 H   0  0  0  0  0  0  0  0  0  0  0  0
    2.2550   30.6035    7.4423 H   0  0  0  0  0  0  0  0  0  0  0  0
    0.2350   31.0060    8.0290 H   0  0  0  0  0  0  0  0  0  0  0  0
   -2.5321   29.7555   10.6857 H   0  0  0  0  0  0  0  0  0  0  0  0
   -1.9443   28.4189    9.5686 H   0  0  0  0  0  0  0  0  0  0  0  0
   -1.2578   28.3730   11.9948 H   0  0  0  0  0  0  0  0  0  0  0  0
   -0.0566   29.7991   13.0381 H   0  0  0  0  0  0  0  0  0  0  0  0
    1.1180   29.9596   11.6885 H   0  0  0  0  0  0  0  0  0  0  0  0
   -0.3892   30.9370   11.6885 H   0  0  0  0  0  0  0  0  0  0  0  0
   -2.4250   24.1050   13.2580 H   0  0  0  0  0  0  0  0  0  0  0  0
   -3.3986   23.5772   16.8284 H   0  0  0  0  0  0  0  0  0  0  0  0
   -3.6565   24.6466   15.4083 H   0  0  0  0  0  0  0  0  0  0  0  0
   -4.3209   22.9777   15.4083 H   0  0  0  0  0  0  0  0  0  0  0  0
   -2.2580   20.2917   18.2366 H   0  0  0  0  0  0  0  0  0  0  0  0
   -3.1230   20.6648   16.7072 H   0  0  0  0  0  0  0  0  0  0  0  0
   -1.7650   19.4889   16.7072 H   0  0  0  0  0  0  0  0  0  0  0  0
  1  2  1  0
  2  3  1  0
  3  4  2  0
  4  5  1  0
  5  6  2  0
  5  7  1  0
  7  8  1  0
  7  9  1  0
  9 10  1  0
 10 11  2  0
 10 12  1  0
 12 13  1  0
 13 14  2  0
 14 15  1  0
 15 16  2  0
 16 17  1  0
 17 18  2  0
 18 19  1  0
 19 20  1  0
 20 21  2  0
 20 22  1  0
 22 23  1  0
 23 24  1  0
  4 25  1  0
 25 26  1  0
 26 27  1  0
 26 28  2  0
 28 29  1  0
 29 30  1  0
 29 31  2  0
 28  3  1  0
 23 12  1  0
 18 13  1  0
  1 32  1  0
  1 33  1  0
  1 34  1  0
  2 35  1  0
  2 36  1  0
  8 37  1  0
  8 38  1  0
  8 39  1  0
  9 40  1  0
  9 41  1  0
 14 42  1  0
 15 43  1  0
 16 44  1  0
 17 45  1  0
 19 46  1  0
 22 47  1  0
 22 48  1  0
 23 49  1  1
 24 50  1  0
 24 51  1  0
 24 52  1  0
 25 53  1  0
 27 54  1  0
 27 55  1  0
 27 56  1  0
 30 57  1  0
 30 58  1  0
 30 59  1  0
M  END
>  <vina_affinity>  (1) 
-7.067

$$$$
dec_C17878767
     RDKit          3D

 40 43  0  0  0  0  0  0  0  0999 V2000
   -1.5200   23.6930   12.5450 N   0  0  0  0  0  0  0  0  0  0  0  0
   -0.9760   24.4370   11.5560 C   0  0  0  0  0  0  0  0  0  0  0  0
   -1.5340   25.4510   10.9970 N   0  0  0  0  0  0  0  0  0  0  0  0
   -0.7300   26.0040   10.0250 C   0  0  0  0  0  0  0  0  0  0  0  0
   -1.1450   26.7420    9.1370 O   0  0  0  0  0  0  0  0  0  0  0  0
    0.7220   25.5660   10.0860 C   0  0  1  0  0  0  0  0  0  0  0  0
    1.6400   26.6160   10.7380 C   0  0  2  0  0  0  0  0  0  0  0  0
    2.6230   26.0490   11.6020 O   0  0  0  0  0  0  0  0  0  0  0  0
    0.8130   27.7160   11.4860 C   0  0  0  0  0  0  0  0  0  0  0  0
    0.2720   27.5950   12.5750 O   0  0  0  0  0  0  0  0  0  0  0  0
    0.8800   28.8810   10.7210 N   0  0  0  0  0  0  0  0  0  0  0  0
    0.1960   30.1110   11.0810 C   0  0  0  0  0  0  0  0  0  0  0  0
   -1.1960   30.2020   10.4910 C   0  0  0  0  0  0  0  0  0  0  0  0
   -2.1820   29.3080   10.9560 C   0  0  0  0  0  0  0  0  0  0  0  0
   -3.4870   29.3420   10.4610 C   0  0  0  0  0  0  0  0  0  0  0  0
   -3.8390   30.2800    9.4990 C   0  0  0  0  0  0  0  0  0  0  0  0
   -2.8890   31.1920    9.0430 C   0  0  0  0  0  0  0  0  0  0  0  0
   -1.5790   31.1630    9.5390 C   0  0  0  0  0  0  0  0  0  0  0  0
   -0.3950   32.4930    8.8750 Br  0  0  0  0  0  0  0  0  0  0  0  0
    1.7930   28.7450    9.6700 C   0  0  0  0  0  0  0  0  0  0  0  0
    2.2060   29.6930    8.7520 C   0  0  0  0  0  0  0  0  0  0  0  0
    3.1820   29.3250    7.8230 C   0  0  0  0  0  0  0  0  0  0  0  0
    3.7280   28.0320    7.8280 C   0  0  0  0  0  0  0  0  0  0  0  0
    3.2980   27.0830    8.7560 C   0  0  0  0  0  0  0  0  0  0  0  0
    2.3200   27.4510    9.6680 C   0  0  0  0  0  0  0  0  0  0  0  0
    0.6120   23.9800   11.0190 S   0  0  0  0  0  0  0  0  0  0  0  0
   -2.2770   24.1620   13.0320 H   0  0  0  0  0  0  0  0  0  0  0  0
   -0.8530   23.2380   13.1540 H   0  0  0  0  0  0  0  0  0  0  0  0
    1.1888   25.4435    9.0975 H   0  0  0  0  0  0  0  0  0  0  0  0
    2.3780   26.2880   12.5130 H   0  0  0  0  0  0  0  0  0  0  0  0
    0.1173   30.1617   12.1770 H   0  0  0  0  0  0  0  0  0  0  0  0
    0.7834   30.9479   10.6753 H   0  0  0  0  0  0  0  0  0  0  0  0
   -1.9174   28.5677   11.7254 H   0  0  0  0  0  0  0  0  0  0  0  0
   -4.2356   28.6267   10.8325 H   0  0  0  0  0  0  0  0  0  0  0  0
   -4.8633   30.3029    9.0987 H   0  0  0  0  0  0  0  0  0  0  0  0
   -3.1699   31.9406    8.2876 H   0  0  0  0  0  0  0  0  0  0  0  0
    1.7787   30.7066    8.7533 H   0  0  0  0  0  0  0  0  0  0  0  0
    3.5269   30.0575    7.0784 H   0  0  0  0  0  0  0  0  0  0  0  0
    4.5020   27.7644    7.0936 H   0  0  0  0  0  0  0  0  0  0  0  0
    3.7238   26.0688    8.7641 H   0  0  0  0  0  0  0  0  0  0  0  0
  1  2  1  0
  2  3  2  0
  3  4  1  0
  4  5  2  0
  4  6  1  0
  6  7  1  0
  7  8  1  1
  7  9  1  0
  9 10  2  0
  9 11  1  0
 11 12  1  0
 12 13  1  0
 13 14  2  0
 14 15  1  0
 15 16  2  0
 16 17  1  0
 17 18  2  0
 18 19  1  0
 11 20  1  0
 20 21  2  0
 21 22  1  0
 22 23  2  0
 23 24  1  0
 24 25  2  0
  6 26  1  0
 26  2  1  0
 25  7  1  0
 18 13  1  0
 25 20  1  0
  1 27  1  0
  1 28  1  0
  6 29  1  6
  8 30  1  0
 12 31  1  0
 12 32  1  0
 14 33  1  0
 15 34  1  0
 16 35  1  0
 17 36  1  0
 21 37  1  0
 22 38  1  0
 23 39  1  0
 24 40  1  0
M  END
>  <vina_affinity>  (1) 
-8.033

$$$$
dec_C63856489
     RDKit          3D

 56 60  0  0  0  0  0  0  0  0999 V2000
    1.6170   27.6320   11.5850 O   0  0  0  0  0  0  0  0  0  0  0  0
    0.9080   27.7290   10.5770 C   0  0  0  0  0  0  0  0  0  0  0  0
    0.6040   29.0570    9.9540 C   0  0  0  0  0  0  0  0  0  0  0  0
    1.1060   29.3040    8.7240 C   0  0  0  0  0  0  0  0  0  0  0  0
    0.8490   30.5900    8.1220 C   0  0  0  0  0  0  0  0  0  0  0  0
    1.6410   31.3080    7.3300 C   0  0  0  0  0  0  0  0  0  0  0  0
    1.0310   32.6350    7.4600 C   0  0  0  0  0  0  0  0  0  0  0  0
   -0.0200   32.7660    8.2140 N   0  0  0  0  0  0  0  0  0  0  0  0
   -0.3490   31.3770    8.5720 C   0  0  2  0  0  0  0  0  0  0  0  0
   -0.6160   31.1810   10.0330 C   0  0  0  0  0  0  0  0  0  0  0  0
   -0.1870   30.0690   10.6610 C   0  0  0  0  0  0  0  0  0  0  0  0
    0.2910   26.6180   10.0250 N   0  0  0  0  0  0  0  0  0  0  0  0
   -1.1460   26.6160    9.7310 C   0  0  0  0  0  0  0  0  0  0  0  0
   -1.8930   25.5690   10.5810 C   0  0  0  0  0  0  0  0  0  0  0  0
   -1.1180   25.1460   11.8520 C   0  0  0  0  0  0  0  0  0  0  0  0
   -1.1020   26.3060   12.8840 C   0  0  0  0  0  0  0  0  0  0  0  0
   -2.1660   26.2760   13.9130 N   0  0  0  0  0  0  0  0  0  0  0  0
   -2.1110   25.0180   14.6780 C   0  0  0  0  0  0  0  0  0  0  0  0
   -3.5350   24.8980   15.2030 C   0  0  2  0  0  0  0  0  0  0  0  0
   -3.9770   23.5500   15.7110 C   0  0  0  0  0  0  0  0  0  0  0  0
   -5.2570   23.3810   16.2620 C   0  0  0  0  0  0  0  0  0  0  0  0
   -5.6580   22.1350   16.7400 C   0  0  0  0  0  0  0  0  0  0  0  0
   -4.7630   21.0850   16.6630 C   0  0  0  0  0  0  0  0  0  0  0  0
   -3.5190   21.2100   16.1560 N   0  0  0  0  0  0  0  0  0  0  0  0
   -3.1500   22.4300   15.7130 C   0  0  0  0  0  0  0  0  0  0  0  0
   -4.3000   25.3340   14.0140 N   0  0  0  0  0  0  0  0  0  0  0  0
   -3.4860   26.3110   13.3520 N   0  0  0  0  0  0  0  0  0  0  0  0
    0.2450   24.5750   11.4190 C   0  0  0  0  0  0  0  0  0  0  0  0
    0.8780   25.3060   10.2350 C   0  0  0  0  0  0  0  0  0  0  0  0
    1.6968   28.5425    8.1939 H   0  0  0  0  0  0  0  0  0  0  0  0
    2.5139   30.9926    6.7396 H   0  0  0  0  0  0  0  0  0  0  0  0
    1.4538   33.5016    6.9306 H   0  0  0  0  0  0  0  0  0  0  0  0
   -1.2850   31.0558    8.0917 H   0  0  0  0  0  0  0  0  0  0  0  0
   -1.1656   31.9495   10.5963 H   0  0  0  0  0  0  0  0  0  0  0  0
   -0.4343   29.9177   11.7221 H   0  0  0  0  0  0  0  0  0  0  0  0
   -1.5571   27.6128    9.9486 H   0  0  0  0  0  0  0  0  0  0  0  0
   -1.2817   26.3607    8.6697 H   0  0  0  0  0  0  0  0  0  0  0  0
   -2.8604   25.9938   10.8872 H   0  0  0  0  0  0  0  0  0  0  0  0
   -2.0132   24.6700    9.9586 H   0  0  0  0  0  0  0  0  0  0  0  0
   -1.6129   24.3314   12.4010 H   0  0  0  0  0  0  0  0  0  0  0  0
   -0.1321   26.2815   13.4024 H   0  0  0  0  0  0  0  0  0  0  0  0
   -1.2792   27.2223   12.3018 H   0  0  0  0  0  0  0  0  0  0  0  0
   -1.8521   24.1680   14.0296 H   0  0  0  0  0  0  0  0  0  0  0  0
   -1.3471   25.0157   15.4694 H   0  0  0  0  0  0  0  0  0  0  0  0
   -3.6764   25.4875   16.1209 H   0  0  0  0  0  0  0  0  0  0  0  0
   -5.9467   24.2362   16.3167 H   0  0  0  0  0  0  0  0  0  0  0  0
   -6.6612   21.9910   17.1676 H   0  0  0  0  0  0  0  0  0  0  0  0
   -5.0803   20.0990   17.0332 H   0  0  0  0  0  0  0  0  0  0  0  0
   -2.1265   22.5476   15.3274 H   0  0  0  0  0  0  0  0  0  0  0  0
   -4.4590   24.5160   13.4110 H   0  0  0  0  0  0  0  0  0  0  0  0
   -3.5200   26.1990   12.3030 H   0  0  0  0  0  0  0  0  0  0  0  0
   -3.9060   27.2500   13.4990 H   0  0  0  0  0  0  0  0  0  0  0  0
    0.9343   24.6395   12.2738 H   0  0  0  0  0  0  0  0  0  0  0  0
    0.0674   23.5389   11.0950 H   0  0  0  0  0  0  0  0  0  0  0  0
    1.9545   25.4257   10.4267 H   0  0  0  0  0  0  0  0  0  0  0  0
    0.6976   24.7058    9.3310 H   0  0  0  0  0  0  0  0  0  0  0  0
  1  2  2  0
  2  3  1  0
  3  4  2  0
  4  5  1  0
  5  6  2  0
  6  7  1  0
  7  8  2  0
  8  9  1  0
  9 10  1  0
 10 11  2  0
  2 12  1  0
 12 13  1  0
 13 14  1  0
 14 15  1  0
 15 16  1  0
 16 17  1  0
 17 18  1  0
 18 19  1  0
 19 20  1  0
 20 21  2  0
 21 22  1  0
 22 23  2  0
 23 24  1  0
 24 25  2  0
 19 26  1  0
 26 27  1  0
 15 28  1  0
 28 29  1  0
 11  3  1  0
 29 12  1  0
  9  5  1  0
 27 17  1  0
 25 20  1  0
  4 30  1  0
  6 31  1  0
  7 32  1  0
  9 33  1  6
 10 34  1  0
 11 35  1  0
 13 36  1  0
 13 37  1  0
 14 38  1  0
 14 39  1  0
 15 40  1  0
 16 41  1  0
 16 42  1  0
 18 43  1  0
 18 44  1  0
 19 45  1  1
 21 46  1  0
 22 47  1  0
 23 48  1  0
 25 49  1  0
 26 50  1  0
 27 51  1  0
 27 52  1  0
 28 53  1  0
 28 54  1  0
 29 55  1  0
 29 56  1  0
M  CHG  1  27   1
M  END
>  <vina_affinity>  (1) 
-8.740

$$$$
dec_C38738446
     RDKit          3D

 53 57  0  0  0  0  0  0  0  0999 V2000
    2.6450   24.0330   10.3190 C   0  0  0  0  0  0  0  0  0  0  0  0
    1.8390   25.1440    9.8090 N   0  0  0  0  0  0  0  0  0  0  0  0
    0.6880   25.5110   10.5550 C   0  0  0  0  0  0  0  0  0  0  0  0
   -0.4600   26.0250    9.9470 C   0  0  0  0  0  0  0  0  0  0  0  0
   -1.5780   26.4170   10.6140 N   0  0  0  0  0  0  0  0  0  0  0  0
   -1.5390   26.2890   11.9490 C   0  0  0  0  0  0  0  0  0  0  0  0
   -2.6420   26.6570   12.7100 C   0  0  0  0  0  0  0  0  0  0  0  0
   -2.6360   26.5420   14.1010 C   0  0  0  0  0  0  0  0  0  0  0  0
   -1.5060   26.0510   14.7420 C   0  0  0  0  0  0  0  0  0  0  0  0
   -0.3930   25.6800   13.9860 C   0  0  0  0  0  0  0  0  0  0  0  0
   -0.3870   25.7900   12.6000 C   0  0  0  0  0  0  0  0  0  0  0  0
    0.7110   25.4210   11.9110 N   0  0  0  0  0  0  0  0  0  0  0  0
    2.6030   26.2360    9.3500 N   0  0  0  0  0  0  0  0  0  0  0  0
    2.6160   27.4750   10.0840 C   0  0  0  0  0  0  0  0  0  0  0  0
    3.5380   28.3400    9.2450 C   0  0  2  0  0  0  0  0  0  0  0  0
    2.8120   29.1540    8.1830 C   0  0  0  0  0  0  0  0  0  0  0  0
    3.2410   29.2210    7.0340 O   0  0  0  0  0  0  0  0  0  0  0  0
    1.6300   29.7350    8.5720 N   0  0  0  0  0  0  0  0  0  0  0  0
    0.6990   30.3350    7.6070 C   0  0  0  0  0  0  0  0  0  0  0  0
   -0.7300   29.7880    7.8350 C   0  0  0  0  0  0  0  0  0  0  0  0
   -1.2470   30.7560    8.8590 C   0  0  0  0  0  0  0  0  0  0  0  0
   -2.3270   30.6030    9.7110 C   0  0  0  0  0  0  0  0  0  0  0  0
   -2.6450   31.6580   10.5690 C   0  0  0  0  0  0  0  0  0  0  0  0
   -1.8950   32.8450   10.5560 C   0  0  0  0  0  0  0  0  0  0  0  0
   -0.8130   32.9940    9.6870 C   0  0  0  0  0  0  0  0  0  0  0  0
   -0.4960   31.9380    8.8520 C   0  0  0  0  0  0  0  0  0  0  0  0
    0.6000   31.8600    7.8290 C   0  0  0  0  0  0  0  0  0  0  0  0
    4.5080   27.3520    8.5890 C   0  0  0  0  0  0  0  0  0  0  0  0
    3.7400   26.0530    8.5560 C   0  0  0  0  0  0  0  0  0  0  0  0
    4.0660   25.0570    7.9300 O   0  0  0  0  0  0  0  0  0  0  0  0
    2.6347   24.0472   11.4189 H   0  0  0  0  0  0  0  0  0  0  0  0
    2.2259   23.0812    9.9606 H   0  0  0  0  0  0  0  0  0  0  0  0
    3.6799   24.1360    9.9606 H   0  0  0  0  0  0  0  0  0  0  0  0
   -0.4593   26.1192    8.8510 H   0  0  0  0  0  0  0  0  0  0  0  0
   -3.5384   27.0470   12.2057 H   0  0  0  0  0  0  0  0  0  0  0  0
   -3.5197   26.8381   14.6852 H   0  0  0  0  0  0  0  0  0  0  0  0
   -1.4883   25.9552   15.8377 H   0  0  0  0  0  0  0  0  0  0  0  0
    0.4997   25.2918   14.4983 H   0  0  0  0  0  0  0  0  0  0  0  0
    1.6082   27.9114   10.1463 H   0  0  0  0  0  0  0  0  0  0  0  0
    2.9455   27.3645   11.1277 H   0  0  0  0  0  0  0  0  0  0  0  0
    4.0359   29.0903    9.8768 H   0  0  0  0  0  0  0  0  0  0  0  0
    1.2280   29.4750    9.4680 H   0  0  0  0  0  0  0  0  0  0  0  0
    1.0746   30.0957    6.6012 H   0  0  0  0  0  0  0  0  0  0  0  0
   -1.3268   29.8197    6.9115 H   0  0  0  0  0  0  0  0  0  0  0  0
   -0.7677   28.7340    8.1476 H   0  0  0  0  0  0  0  0  0  0  0  0
   -2.9187   29.6757    9.7123 H   0  0  0  0  0  0  0  0  0  0  0  0
   -3.4927   31.5580   11.2629 H   0  0  0  0  0  0  0  0  0  0  0  0
   -2.1629   33.6658   11.2376 H   0  0  0  0  0  0  0  0  0  0  0  0
   -0.2285   33.9256    9.6668 H   0  0  0  0  0  0  0  0  0  0  0  0
    0.3240   32.3847    6.9024 H   0  0  0  0  0  0  0  0  0  0  0  0
    1.5430   32.3317    8.1424 H   0  0  0  0  0  0  0  0  0  0  0  0
    4.7690   27.6778    7.5713 H   0  0  0  0  0  0  0  0  0  0  0  0
    5.4594   27.2674    9.1347 H   0  0  0  0  0  0  0  0  0  0  0  0
  1  2  1  0
  2  3  1  0
  3  4  2  0
  4  5  1  0
  5  6  2  0
  6  7  1  0
  7  8  2  0
  8  9  1  0
  9 10  2  0
 10 11  1  0
 11 12  2  0
  2 13  1  0
 13 14  1  0
 14 15  1  0
 15 16  1  0
 16 17  2  0
 16 18  1  0
 18 19  1  0
 19 20  1  0
 20 21  1  0
 21 22  2  0
 22 23  1  0
 23 24  2  0
 24 25  1  0
 25 26  2  0
 26 27  1  0
 15 28  1  0
 28 29  1  0
 29 30  2  0
 12  3  1  0
 29 13  1  0
 11  6  1  0
 27 19  1  0
 26 21  1  0
  1 31  1  0
  1 32  1  0
  1 33  1  0
  4 34  1  0
  7 35  1  0
  8 36  1  0
  9 37  1  0
 10 38  1  0
 14 39  1  0
 14 40  1  0
 15 41  1  1
 18 42  1  0
 19 43  1  0
 20 44  1  0
 20 45  1  0
 22 46  1  0
 23 47  1  0
 24 48  1  0
 25 49  1  0
 27 50  1  0
 27 51  1  0
 28 52  1  0
 28 53  1  0
M  END
>  <vina_affinity>  (1) 
-8.950

$$$$
dec_C19198565
     RDKit          3D

 32 33  0  0  0  0  0  0  0  0999 V2000
    1.6440   31.8350    6.7110 N   0  0  0  0  0  0  0  0  0  0  0  0
    1.1120   31.1590    7.4900 C   0  0  0  0  0  0  0  0  0  0  0  0
    0.4080   30.3610    8.4310 C   0  0  0  0  0  0  0  0  0  0  0  0
   -0.8970   30.5620    8.6830 C   0  0  0  0  0  0  0  0  0  0  0  0
   -1.5980   29.7430    9.6500 C   0  0  0  0  0  0  0  0  0  0  0  0
   -3.0180   29.9570    9.9430 N   0  0  0  0  0  0  0  0  0  0  0  0
   -3.5160   29.2580   10.8360 O   0  0  0  0  0  0  0  0  0  0  0  0
   -3.6280   30.8180    9.2970 O   0  0  0  0  0  0  0  0  0  0  0  0
   -0.9580   28.7560   10.2950 C   0  0  0  0  0  0  0  0  0  0  0  0
    0.3870   28.5060   10.0450 N   0  0  0  0  0  0  0  0  0  0  0  0
    1.0700   27.4370   10.7800 C   0  0  0  0  0  0  0  0  0  0  0  0
    0.0470   26.4240   11.3000 C   0  0  0  0  0  0  0  0  0  0  0  0
   -0.4430   25.5920   10.5420 O   0  0  0  0  0  0  0  0  0  0  0  0
   -0.2690   26.6210   12.6340 N   0  0  0  0  0  0  0  0  0  0  0  0
   -1.1670   25.8800   13.4250 C   0  0  0  0  0  0  0  0  0  0  0  0
   -0.8000   24.7750   14.1980 C   0  0  0  0  0  0  0  0  0  0  0  0
   -1.7560   24.0940   14.9610 C   0  0  0  0  0  0  0  0  0  0  0  0
   -3.0830   24.5170   14.9540 C   0  0  0  0  0  0  0  0  0  0  0  0
   -4.4990   23.5030   16.0860 I   0  0  0  0  0  0  0  0  0  0  0  0
   -3.4630   25.6180   14.1910 C   0  0  0  0  0  0  0  0  0  0  0  0
   -2.5040   26.2970   13.4310 C   0  0  0  0  0  0  0  0  0  0  0  0
    1.1450   29.2790    9.1590 C   0  0  0  0  0  0  0  0  0  0  0  0
    2.3500   29.1030    9.0000 O   0  0  0  0  0  0  0  0  0  0  0  0
   -1.4382   31.3570    8.1491 H   0  0  0  0  0  0  0  0  0  0  0  0
   -1.5010   28.1400   11.0269 H   0  0  0  0  0  0  0  0  0  0  0  0
    1.7780   26.9283   10.1092 H   0  0  0  0  0  0  0  0  0  0  0  0
    1.6118   27.8734   11.6321 H   0  0  0  0  0  0  0  0  0  0  0  0
    0.1330   27.4490   13.0750 H   0  0  0  0  0  0  0  0  0  0  0  0
    0.2471   24.4381   14.2069 H   0  0  0  0  0  0  0  0  0  0  0  0
   -1.4591   23.2247   15.5661 H   0  0  0  0  0  0  0  0  0  0  0  0
   -4.5110   25.9521   14.1857 H   0  0  0  0  0  0  0  0  0  0  0  0
   -2.8039   27.1688   12.8310 H   0  0  0  0  0  0  0  0  0  0  0  0
  1  2  3  0
  2  3  1  0
  3  4  2  0
  4  5  1  0
  5  6  1  0
  6  7  2  0
  6  8  1  0
  5  9  2  0
  9 10  1  0
 10 11  1  0
 11 12  1  0
 12 13  2  0
 12 14  1  0
 14 15  1  0
 15 16  2  0
 16 17  1  0
 17 18  2  0
 18 19  1  0
 18 20  1  0
 20 21  2  0
 10 22  1  0
 22 23  2  0
 22  3  1  0
 21 15  1  0
  4 24  1  0
  9 25  1  0
 11 26  1  0
 11 27  1  0
 14 28  1  0
 16 29  1  0
 17 30  1  0
 20 31  1  0
 21 32  1  0
M  CHG  2   6   1   8  -1
M  END
>  <vina_affinity>  (1) 
-7.483

$$$$
dec_C12453849
     RDKit          3D

 57 61  0  0  0  0  0  0  0  0999 V2000
    4.4310   27.4390    4.8070 C   0  0  0  0  0  0  0  0  0  0  0  0
    5.1910   26.3280    5.5110 C   0  0  0  0  0  0  0  0  0  0  0  0
    5.6010   26.7450    6.8130 O   0  0  0  0  0  0  0  0  0  0  0  0
    4.6520   27.0000    7.7590 C   0  0  0  0  0  0  0  0  0  0  0  0
    3.9690   25.8690    8.2110 C   0  0  0  0  0  0  0  0  0  0  0  0
    2.9760   25.9710    9.1870 C   0  0  0  0  0  0  0  0  0  0  0  0
    2.6470   27.2160    9.7450 C   0  0  0  0  0  0  0  0  0  0  0  0
    1.5960   27.3650   10.8360 C   0  0  1  0  0  0  0  0  0  0  0  0
    0.5300   28.3550   10.4950 C   0  0  0  0  0  0  0  0  0  0  0  0
    0.7300   29.6930   10.2770 N   0  0  0  0  0  0  0  0  0  0  0  0
   -0.4700   30.2990    9.9740 C   0  0  0  0  0  0  0  0  0  0  0  0
   -0.7470   31.6400    9.6790 C   0  0  0  0  0  0  0  0  0  0  0  0
   -2.0740   31.9820    9.4060 C   0  0  0  0  0  0  0  0  0  0  0  0
   -3.0820   31.0210    9.4260 C   0  0  0  0  0  0  0  0  0  0  0  0
   -2.7900   29.6840    9.7200 C   0  0  0  0  0  0  0  0  0  0  0  0
   -1.4590   29.3140    9.9970 C   0  0  0  0  0  0  0  0  0  0  0  0
   -0.8160   28.0910   10.3200 C   0  0  0  0  0  0  0  0  0  0  0  0
   -1.3820   26.7240   10.4780 C   0  0  0  0  0  0  0  0  0  0  0  0
   -0.2690   25.6620   10.3960 C   0  0  0  0  0  0  0  0  0  0  0  0
    0.9290   26.0590   11.2510 N   0  0  1  0  0  0  0  0  0  0  0  0
    1.8850   24.9230   11.5020 C   0  0  0  0  0  0  0  0  0  0  0  0
    1.2440   23.8250   12.2700 C   0  0  0  0  0  0  0  0  0  0  0  0
    1.2550   22.4500   12.1810 C   0  0  0  0  0  0  0  0  0  0  0  0
    0.4380   21.9760   13.2400 C   0  0  0  0  0  0  0  0  0  0  0  0
   -0.0230   23.0890   13.9110 C   0  0  0  0  0  0  0  0  0  0  0  0
   -0.9040   23.2790   15.0900 C   0  0  0  0  0  0  0  0  0  0  0  0
   -0.1500   22.9430   16.2480 O   0  0  0  0  0  0  0  0  0  0  0  0
    0.4620   24.2180   13.3180 O   0  0  0  0  0  0  0  0  0  0  0  0
    3.3370   28.3500    9.2800 C   0  0  0  0  0  0  0  0  0  0  0  0
    4.3310   28.2410    8.2990 C   0  0  0  0  0  0  0  0  0  0  0  0
    3.9762   28.1039    5.5561 H   0  0  0  0  0  0  0  0  0  0  0  0
    5.1245   28.0159    4.1776 H   0  0  0  0  0  0  0  0  0  0  0  0
    3.6419   27.0017    4.1776 H   0  0  0  0  0  0  0  0  0  0  0  0
    4.5396   25.4464    5.6025 H   0  0  0  0  0  0  0  0  0  0  0  0
    6.0855   26.0814    4.9202 H   0  0  0  0  0  0  0  0  0  0  0  0
    4.2171   24.8828    7.7917 H   0  0  0  0  0  0  0  0  0  0  0  0
    2.4464   25.0669    9.5219 H   0  0  0  0  0  0  0  0  0  0  0  0
    2.1810   27.7362   11.6904 H   0  0  0  0  0  0  0  0  0  0  0  0
    1.6160   30.1850   10.3050 H   0  0  0  0  0  0  0  0  0  0  0  0
    0.0513   32.3966    9.6628 H   0  0  0  0  0  0  0  0  0  0  0  0
   -2.3266   33.0266    9.1716 H   0  0  0  0  0  0  0  0  0  0  0  0
   -4.1191   31.3160    9.2083 H   0  0  0  0  0  0  0  0  0  0  0  0
   -3.5910   28.9303    9.7346 H   0  0  0  0  0  0  0  0  0  0  0  0
   -1.8804   26.6502   11.4558 H   0  0  0  0  0  0  0  0  0  0  0  0
   -2.1037   26.5438    9.6677 H   0  0  0  0  0  0  0  0  0  0  0  0
   -0.6632   24.6994   10.7539 H   0  0  0  0  0  0  0  0  0  0  0  0
    0.0595   25.5788    9.3495 H   0  0  0  0  0  0  0  0  0  0  0  0
    0.5300   26.2560   12.1810 H   0  0  0  0  0  0  0  0  0  0  0  0
    2.2303   24.5275   10.5354 H   0  0  0  0  0  0  0  0  0  0  0  0
    2.7281   25.3088   12.0940 H   0  0  0  0  0  0  0  0  0  0  0  0
    1.7903   21.8413   11.4374 H   0  0  0  0  0  0  0  0  0  0  0  0
    0.2158   20.9255   13.4790 H   0  0  0  0  0  0  0  0  0  0  0  0
   -1.2330   24.3271   15.1475 H   0  0  0  0  0  0  0  0  0  0  0  0
   -1.7972   22.6417   15.0119 H   0  0  0  0  0  0  0  0  0  0  0  0
    0.6790   22.5420   15.9350 H   0  0  0  0  0  0  0  0  0  0  0  0
    3.0919   29.3393    9.6937 H   0  0  0  0  0  0  0  0  0  0  0  0
    4.8604   29.1414    7.9540 H   0  0  0  0  0  0  0  0  0  0  0  0
  1  2  1  0
  2  3  1  0
  3  4  1  0
  4  5  2  0
  5  6  1  0
  6  7  2  0
  7  8  1  0
  8  9  1  0
  9 10  1  0
 10 11  1  0
 11 12  2  0
 12 13  1  0
 13 14  2  0
 14 15  1  0
 15 16  2  0
 16 17  1  0
 17 18  1  0
 18 19  1  0
 19 20  1  0
 20 21  1  0
 21 22  1  0
 22 23  2  0
 23 24  1  0
 24 25  2  0
 25 26  1  0
 26 27  1  0
 25 28  1  0
  7 29  1  0
 29 30  2  0
 30  4  1  0
 20  8  1  0
 28 22  1  0
 17  9  2  0
 16 11  1  0
  1 31  1  0
  1 32  1  0
  1 33  1  0
  2 34  1  0
  2 35  1  0
  5 36  1  0
  6 37  1  0
  8 38  1  1
 10 39  1  0
 12 40  1  0
 13 41  1  0
 14 42  1  0
 15 43  1  0
 18 44  1  0
 18 45  1  0
 19 46  1  0
 19 47  1  0
 20 48  1  1
 21 49  1  0
 21 50  1  0
 23 51  1  0
 24 52  1  0
 26 53  1  0
 26 54  1  0
 27 55  1  0
 29 56  1  0
 30 57  1  0
M  CHG  1  20   1
M  END
>  <vina_affinity>  (1) 
-8.546

$$$$
dec_C39662312
     RDKit          3D

 61 64  0  0  0  0  0  0  0  0999 V2000
   -4.1330   30.3150    9.4190 N   0  0  0  0  0  0  0  0  0  0  0  0
   -3.0180   30.2640    9.7400 C   0  0  0  0  0  0  0  0  0  0  0  0
   -1.6020   30.1230   10.1540 C   0  0  1  0  0  0  0  0  0  0  0  0
   -1.2200   28.7090   10.2160 N   0  0  0  0  0  0  0  0  0  0  0  0
   -1.8630   27.8280   11.0450 C   0  0  0  0  0  0  0  0  0  0  0  0
   -2.9080   28.1070   11.6210 O   0  0  0  0  0  0  0  0  0  0  0  0
   -1.2540   26.4420   11.1180 C   0  0  1  0  0  0  0  0  0  0  0  0
    0.1460   26.4030   10.5050 C   0  0  0  0  0  0  0  0  0  0  0  0
    0.7520   25.2140   11.0660 N   0  0  0  0  0  0  0  0  0  0  0  0
    2.0440   24.8680   10.7130 C   0  0  0  0  0  0  0  0  0  0  0  0
    2.6050   23.8770   11.1720 O   0  0  0  0  0  0  0  0  0  0  0  0
    2.7600   25.7040    9.7250 C   0  0  0  0  0  0  0  0  0  0  0  0
    2.7560   27.0980    9.8170 C   0  0  0  0  0  0  0  0  0  0  0  0
    3.4500   27.8660    8.8740 C   0  0  0  0  0  0  0  0  0  0  0  0
    4.1610   27.2430    7.8460 C   0  0  0  0  0  0  0  0  0  0  0  0
    4.8770   27.8620    6.8630 O   0  0  0  0  0  0  0  0  0  0  0  0
    4.2460   28.0630    5.6090 C   0  0  0  0  0  0  0  0  0  0  0  0
    3.2400   28.9500    5.7620 F   0  0  0  0  0  0  0  0  0  0  0  0
    5.1200   28.5680    4.7080 F   0  0  0  0  0  0  0  0  0  0  0  0
    3.7310   26.9100    5.1340 F   0  0  0  0  0  0  0  0  0  0  0  0
    4.1840   25.8440    7.7810 C   0  0  0  0  0  0  0  0  0  0  0  0
    3.4940   25.0730    8.7200 C   0  0  0  0  0  0  0  0  0  0  0  0
   -0.0830   24.6300   12.1010 C   0  0  0  0  0  0  0  0  0  0  0  0
   -1.0460   25.7810   12.5280 C   0  0  0  0  0  0  0  0  0  0  0  0
   -2.3280   25.1630   13.1230 C   0  0  0  0  0  0  0  0  0  0  0  0
   -3.1600   26.1030   13.9810 C   0  0  0  0  0  0  0  0  0  0  0  0
   -2.2970   26.6920   15.0400 N   0  0  0  0  0  0  0  0  0  0  0  0
   -1.1580   27.4960   14.5230 C   0  0  0  0  0  0  0  0  0  0  0  0
   -0.3000   26.6590   13.5810 C   0  0  0  0  0  0  0  0  0  0  0  0
   -0.6460   30.8610    9.2290 C   0  0  0  0  0  0  0  0  0  0  0  0
    0.3210   30.1450    8.5030 C   0  0  0  0  0  0  0  0  0  0  0  0
    1.1920   30.8050    7.6350 C   0  0  0  0  0  0  0  0  0  0  0  0
    1.1050   32.1860    7.4750 C   0  0  0  0  0  0  0  0  0  0  0  0
    0.1490   32.9100    8.1820 C   0  0  0  0  0  0  0  0  0  0  0  0
   -0.7230   32.2550    9.0540 C   0  0  0  0  0  0  0  0  0  0  0  0
   -1.5235   30.5771   11.1528 H   0  0  0  0  0  0  0  0  0  0  0  0
   -0.3290   28.4710    9.7950 H   0  0  0  0  0  0  0  0  0  0  0  0
   -2.0307   25.8794   10.5792 H   0  0  0  0  0  0  0  0  0  0  0  0
    0.0890   26.3306    9.4089 H   0  0  0  0  0  0  0  0  0  0  0  0
    0.7252   27.3121   10.7245 H   0  0  0  0  0  0  0  0  0  0  0  0
    2.2068   27.5930   10.6315 H   0  0  0  0  0  0  0  0  0  0  0  0
    3.4351   28.9637    8.9431 H   0  0  0  0  0  0  0  0  0  0  0  0
    4.7520   25.3464    6.9812 H   0  0  0  0  0  0  0  0  0  0  0  0
    3.5292   23.9748    8.6673 H   0  0  0  0  0  0  0  0  0  0  0  0
   -0.6512   23.7754   11.7050 H   0  0  0  0  0  0  0  0  0  0  0  0
    0.5079   24.2463   12.9458 H   0  0  0  0  0  0  0  0  0  0  0  0
   -2.9569   24.8156   12.2901 H   0  0  0  0  0  0  0  0  0  0  0  0
   -1.9964   24.3532   13.7895 H   0  0  0  0  0  0  0  0  0  0  0  0
   -3.5719   26.9067   13.3530 H   0  0  0  0  0  0  0  0  0  0  0  0
   -3.9863   25.5451   14.4457 H   0  0  0  0  0  0  0  0  0  0  0  0
   -1.9510   25.9560   15.6690 H   0  0  0  0  0  0  0  0  0  0  0  0
   -2.8780   27.3070   15.6250 H   0  0  0  0  0  0  0  0  0  0  0  0
   -1.5481   28.3687   13.9787 H   0  0  0  0  0  0  0  0  0  0  0  0
   -0.5395   27.8246   15.3712 H   0  0  0  0  0  0  0  0  0  0  0  0
    0.3571   27.3487   13.0310 H   0  0  0  0  0  0  0  0  0  0  0  0
    0.2190   25.9408   14.2327 H   0  0  0  0  0  0  0  0  0  0  0  0
    0.3921   29.0536    8.6200 H   0  0  0  0  0  0  0  0  0  0  0  0
    1.9482   30.2339    7.0765 H   0  0  0  0  0  0  0  0  0  0  0  0
    1.7918   32.7046    6.7899 H   0  0  0  0  0  0  0  0  0  0  0  0
    0.0804   34.0003    8.0535 H   0  0  0  0  0  0  0  0  0  0  0  0
   -1.4764   32.8336    9.6087 H   0  0  0  0  0  0  0  0  0  0  0  0
  1  2  3  0
  2  3  1  0
  3  4  1  0
  4  5  1  0
  5  6  2  0
  5  7  1  0
  7  8  1  0
  8  9  1  0
  9 10  1  0
 10 11  2  0
 10 12  1  0
 12 13  2  0
 13 14  1  0
 14 15  2  0
 15 16  1  0
 16 17  1  0
 17 18  1  0
 17 19  1  0
 17 20  1  0
 15 21  1  0
 21 22  2  0
  9 23  1  0
 23 24  1  0
 24 25  1  0
 25 26  1  0
 26 27  1  0
 27 28  1  0
 28 29  1  0
  3 30  1  0
 30 31  2  0
 31 32  1  0
 32 33  2  0
 33 34  1  0
 34 35  2  0
 24  7  1  0
 35 30  1  0
 22 12  1  0
 29 24  1  0
  3 36  1  1
  4 37  1  0
  7 38  1  6
  8 39  1  0
  8 40  1  0
 13 41  1  0
 14 42  1  0
 21 43  1  0
 22 44  1  0
 23 45  1  0
 23 46  1  0
 25 47  1  0
 25 48  1  0
 26 49  1  0
 26 50  1  0
 27 51  1  0
 27 52  1  0
 28 53  1  0
 28 54  1  0
 29 55  1  0
 29 56  1  0
 31 57  1  0
 32 58  1  0
 33 59  1  0
 34 60  1  0
 35 61  1  0
M  CHG  1  27   1
M  END
>  <vina_affinity>  (1) 
-9.566

$$$$
dec_C62462984
     RDKit          3D

 49 50  0  0  0  0  0  0  0  0999 V2000
    2.5990   27.4440   10.0860 C   0  0  0  0  0  0  0  0  0  0  0  0
    1.5410   28.5100   10.3410 C   0  0  0  0  0  0  0  0  0  0  0  0
    0.1810   28.2030    9.6940 C   0  0  1  0  0  0  0  0  0  0  0  0
   -0.6680   27.1010   10.3920 C   0  0  0  0  0  0  0  0  0  0  0  0
   -1.5190   26.5140    9.7230 O   0  0  0  0  0  0  0  0  0  0  0  0
   -0.4750   26.9460   11.7480 N   0  0  0  0  0  0  0  0  0  0  0  0
   -1.1720   26.0830   12.6350 C   0  0  0  0  0  0  0  0  0  0  0  0
   -2.4080   26.3860   13.2040 C   0  0  0  0  0  0  0  0  0  0  0  0
   -3.0230   25.4790   14.0790 C   0  0  0  0  0  0  0  0  0  0  0  0
   -2.4440   24.2430   14.3690 C   0  0  0  0  0  0  0  0  0  0  0  0
   -3.0080   23.4140   15.3420 N   0  0  0  0  0  0  0  0  0  0  0  0
   -1.1830   23.9580   13.8470 C   0  0  0  0  0  0  0  0  0  0  0  0
   -0.5650   24.8580   12.9760 C   0  0  0  0  0  0  0  0  0  0  0  0
    0.9930   24.4450   12.3360 Cl  0  0  0  0  0  0  0  0  0  0  0  0
   -0.6220   29.5080    9.4470 N   0  0  1  0  0  0  0  0  0  0  0  0
   -1.4830   29.8790   10.6430 C   0  0  0  0  0  0  0  0  0  0  0  0
   -2.5490   30.8890   10.1930 C   0  0  2  0  0  0  0  0  0  0  0  0
   -3.8220   30.1900    9.7110 C   0  0  0  0  0  0  0  0  0  0  0  0
   -2.0290   31.8530    9.1100 C   0  0  0  0  0  0  0  0  0  0  0  0
   -0.5100   32.0190    9.2000 C   0  0  2  0  0  0  0  0  0  0  0  0
   -0.0080   33.0680    8.2110 C   0  0  0  0  0  0  0  0  0  0  0  0
    0.2160   30.6820    8.9790 C   0  0  0  0  0  0  0  0  0  0  0  0
    2.9759   27.0642   11.0471 H   0  0  0  0  0  0  0  0  0  0  0  0
    2.1550   26.6163    9.5134 H   0  0  0  0  0  0  0  0  0  0  0  0
    3.4300   27.8817    9.5134 H   0  0  0  0  0  0  0  0  0  0  0  0
    1.3953   28.6008   11.4275 H   0  0  0  0  0  0  0  0  0  0  0  0
    1.9089   29.4413    9.8857 H   0  0  0  0  0  0  0  0  0  0  0  0
    0.4245   27.7482    8.7225 H   0  0  0  0  0  0  0  0  0  0  0  0
    0.2630   27.4630   12.2170 H   0  0  0  0  0  0  0  0  0  0  0  0
   -2.9024   27.3394   12.9659 H   0  0  0  0  0  0  0  0  0  0  0  0
   -3.9818   25.7475   14.5465 H   0  0  0  0  0  0  0  0  0  0  0  0
   -3.2240   22.4710   15.0320 H   0  0  0  0  0  0  0  0  0  0  0  0
   -3.7780   23.8270   15.8590 H   0  0  0  0  0  0  0  0  0  0  0  0
   -0.6738   23.0224   14.1217 H   0  0  0  0  0  0  0  0  0  0  0  0
   -1.2870   29.2900    8.6970 H   0  0  0  0  0  0  0  0  0  0  0  0
   -1.9725   28.9773   11.0397 H   0  0  0  0  0  0  0  0  0  0  0  0
   -0.8565   30.3236   11.4303 H   0  0  0  0  0  0  0  0  0  0  0  0
   -2.7940   31.4882   11.0823 H   0  0  0  0  0  0  0  0  0  0  0  0
   -4.4134   29.8653   10.5798 H   0  0  0  0  0  0  0  0  0  0  0  0
   -4.4162   30.8884    9.1034 H   0  0  0  0  0  0  0  0  0  0  0  0
   -3.5516   29.3139    9.1034 H   0  0  0  0  0  0  0  0  0  0  0  0
   -2.2881   31.4525    8.1188 H   0  0  0  0  0  0  0  0  0  0  0  0
   -2.4967   32.8364    9.2653 H   0  0  0  0  0  0  0  0  0  0  0  0
   -0.2810   32.3673   10.2180 H   0  0  0  0  0  0  0  0  0  0  0  0
    0.4026   33.9260    8.7635 H   0  0  0  0  0  0  0  0  0  0  0  0
    0.7777   32.6292    7.5784 H   0  0  0  0  0  0  0  0  0  0  0  0
   -0.8426   33.4046    7.5784 H   0  0  0  0  0  0  0  0  0  0  0  0
    0.4282   30.5640    7.9061 H   0  0  0  0  0  0  0  0  0  0  0  0
    1.1472   30.6952    9.5644 H   0  0  0  0  0  0  0  0  0  0  0  0
  1  2  1  0
  2  3  1  0
  3  4  1  0
  4  5  2  0
  4  6  1  0
  6  7  1  0
  7  8  2  0
  8  9  1  0
  9 10  2  0
 10 11  1  0
 10 12  1  0
 12 13  2  0
 13 14  1  0
  3 15  1  0
 15 16  1  0
 16 17  1  0
 17 18  1  0
 17 19  1  0
 19 20  1  0
 20 21  1  0
 20 22  1  0
 13  7  1  0
 22 15  1  0
  1 23  1  0
  1 24  1  0
  1 25  1  0
  2 26  1  0
  2 27  1  0
  3 28  1  6
  6 29  1  0
  8 30  1  0
  9 31  1  0
 11 32  1  0
 11 33  1  0
 12 34  1  0
 15 35  1  6
 16 36  1  0
 16 37  1  0
 17 38  1  1
 18 39  1  0
 18 40  1  0
 18 41  1  0
 19 42  1  0
 19 43  1  0
 20 44  1  1
 21 45  1  0
 21 46  1  0
 21 47  1  0
 22 48  1  0
 22 49  1  0
M  CHG  1  15   1
M  END
>  <vina_affinity>  (1) 
-7.003

$$$$
dec_C09500548
     RDKit          3D

 55 59  0  0  0  0  0  0  0  0999 V2000
   -2.2350   29.2290   10.3440 C   0  0  0  0  0  0  0  0  0  0  0  0
   -1.0700   28.2460   10.4410 C   0  0  2  0  0  0  0  0  0  0  0  0
    0.1650   28.6980    9.6700 C   0  0  0  0  0  0  0  0  0  0  0  0
    0.0600   29.7570    8.7290 C   0  0  0  0  0  0  0  0  0  0  0  0
    1.1680   30.2100    8.0010 C   0  0  0  0  0  0  0  0  0  0  0  0
    2.3760   29.5930    8.2250 C   0  0  0  0  0  0  0  0  0  0  0  0
    2.5010   28.5690    9.1280 C   0  0  0  0  0  0  0  0  0  0  0  0
    1.4280   28.1010    9.8600 C   0  0  0  0  0  0  0  0  0  0  0  0
    3.7740   28.0980    9.2040 O   0  0  0  0  0  0  0  0  0  0  0  0
    4.4330   28.9260    8.2190 C   0  0  0  0  0  0  0  0  0  0  0  0
    3.5510   29.8970    7.6160 O   0  0  0  0  0  0  0  0  0  0  0  0
   -1.5180   26.9110   10.0800 N   0  0  0  0  0  0  0  0  0  0  0  0
   -1.2950   25.9880   11.0650 C   0  0  0  0  0  0  0  0  0  0  0  0
   -1.5210   24.7920   10.9900 O   0  0  0  0  0  0  0  0  0  0  0  0
   -0.8360   26.6230   12.1660 N   0  0  0  0  0  0  0  0  0  0  0  0
   -0.3680   25.9570   13.3360 C   0  0  0  0  0  0  0  0  0  0  0  0
   -1.4600   25.2510   14.0970 N   0  0  0  0  0  0  0  0  0  0  0  0
   -2.3800   26.1800   14.8770 C   0  0  0  0  0  0  0  0  0  0  0  0
   -3.4070   25.3660   15.7120 C   0  0  0  0  0  0  0  0  0  0  0  0
   -3.5150   23.9560   15.2210 N   0  0  0  0  0  0  0  0  0  0  0  0
   -4.5620   23.2620   15.8550 C   0  0  0  0  0  0  0  0  0  0  0  0
   -5.2630   23.7200   16.9780 C   0  0  0  0  0  0  0  0  0  0  0  0
   -6.2850   22.9450   17.5220 C   0  0  0  0  0  0  0  0  0  0  0  0
   -6.6030   21.7230   16.9430 C   0  0  0  0  0  0  0  0  0  0  0  0
   -5.8900   21.3030   15.8320 C   0  0  0  0  0  0  0  0  0  0  0  0
   -4.9100   22.0740   15.3350 N   0  0  0  0  0  0  0  0  0  0  0  0
   -2.2170   23.2140   15.3620 C   0  0  0  0  0  0  0  0  0  0  0  0
   -0.9940   24.0720   14.9250 C   0  0  0  0  0  0  0  0  0  0  0  0
   -0.7190   27.9600   11.9270 C   0  0  0  0  0  0  0  0  0  0  0  0
   -0.4010   28.7700   12.7890 O   0  0  0  0  0  0  0  0  0  0  0  0
   -2.5650   29.5075   11.3557 H   0  0  0  0  0  0  0  0  0  0  0  0
   -1.9103   30.1302    9.8032 H   0  0  0  0  0  0  0  0  0  0  0  0
   -3.0687   28.7573    9.8032 H   0  0  0  0  0  0  0  0  0  0  0  0
   -0.9178   30.2343    8.5675 H   0  0  0  0  0  0  0  0  0  0  0  0
    1.0746   31.0312    7.2751 H   0  0  0  0  0  0  0  0  0  0  0  0
    1.5561   27.2776   10.5781 H   0  0  0  0  0  0  0  0  0  0  0  0
    5.2608   29.4606    8.7079 H   0  0  0  0  0  0  0  0  0  0  0  0
    4.7889   28.2626    7.4170 H   0  0  0  0  0  0  0  0  0  0  0  0
   -1.8080   26.6350    9.1470 H   0  0  0  0  0  0  0  0  0  0  0  0
    0.3857   25.2138   13.0368 H   0  0  0  0  0  0  0  0  0  0  0  0
    0.0496   26.7254   14.0032 H   0  0  0  0  0  0  0  0  0  0  0  0
   -2.0620   24.8440   13.3700 H   0  0  0  0  0  0  0  0  0  0  0  0
   -1.7755   26.8008   15.5546 H   0  0  0  0  0  0  0  0  0  0  0  0
   -2.9282   26.8135   14.1642 H   0  0  0  0  0  0  0  0  0  0  0  0
   -3.0848   25.3551   16.7637 H   0  0  0  0  0  0  0  0  0  0  0  0
   -4.3924   25.8443   15.6106 H   0  0  0  0  0  0  0  0  0  0  0  0
   -5.0070   24.6898   17.4295 H   0  0  0  0  0  0  0  0  0  0  0  0
   -6.8371   23.2988   18.4052 H   0  0  0  0  0  0  0  0  0  0  0  0
   -7.4075   21.0993   17.3597 H   0  0  0  0  0  0  0  0  0  0  0  0
   -6.1266   20.3391   15.3578 H   0  0  0  0  0  0  0  0  0  0  0  0
   -4.3970   21.7580   14.5160 H   0  0  0  0  0  0  0  0  0  0  0  0
   -2.0877   22.9249   16.4154 H   0  0  0  0  0  0  0  0  0  0  0  0
   -2.2609   22.3326   14.7053 H   0  0  0  0  0  0  0  0  0  0  0  0
   -0.4683   24.4392   15.8187 H   0  0  0  0  0  0  0  0  0  0  0  0
   -0.3143   23.4523   14.3217 H   0  0  0  0  0  0  0  0  0  0  0  0
  2  1  1  1
  2  3  1  0
  3  4  2  0
  4  5  1  0
  5  6  2  0
  6  7  1  0
  7  8  2  0
  7  9  1  0
  9 10  1  0
 10 11  1  0
  2 12  1  0
 12 13  1  0
 13 14  2  0
 13 15  1  0
 15 16  1  0
 16 17  1  0
 17 18  1  0
 18 19  1  0
 19 20  1  0
 20 21  1  0
 21 22  2  0
 22 23  1  0
 23 24  2  0
 24 25  1  0
 25 26  2  0
 20 27  1  0
 27 28  1  0
 15 29  1  0
 29 30  2  0
 29  2  1  0
  8  3  1  0
 28 17  1  0
 11  6  1  0
 26 21  1  0
  1 31  1  0
  1 32  1  0
  1 33  1  0
  4 34  1  0
  5 35  1  0
  8 36  1  0
 10 37  1  0
 10 38  1  0
 12 39  1  0
 16 40  1  0
 16 41  1  0
 17 42  1  0
 18 43  1  0
 18 44  1  0
 19 45  1  0
 19 46  1  0
 22 47  1  0
 23 48  1  0
 24 49  1  0
 25 50  1  0
 26 51  1  0
 27 52  1  0
 27 53  1  0
 28 54  1  0
 28 55  1  0
M  CHG  2  17   1  26   1
M  END
>  <vina_affinity>  (1) 
-9.060

$$$$
dec_C12360115
     RDKit          3D

 61 66  0  0  0  0  0  0  0  0999 V2000
   -1.4560   26.0700   10.3820 O   0  0  0  0  0  0  0  0  0  0  0  0
   -1.8940   26.3770   11.4970 C   0  0  0  0  0  0  0  0  0  0  0  0
   -2.4300   27.7800   11.7660 C   0  0  0  0  0  0  0  0  0  0  0  0
   -1.1170   28.8700   12.4130 S   0  0  0  0  0  0  0  0  0  0  0  0
   -0.5450   29.6530   10.9140 C   0  0  0  0  0  0  0  0  0  0  0  0
   -1.2190   30.7140   10.4430 N   0  0  0  0  0  0  0  0  0  0  0  0
   -0.7980   31.3240    9.3150 C   0  0  0  0  0  0  0  0  0  0  0  0
   -1.4870   32.3400    8.9610 O   0  0  0  0  0  0  0  0  0  0  0  0
    0.3350   30.8120    8.6510 C   0  0  0  0  0  0  0  0  0  0  0  0
    0.8670   31.3600    7.4560 C   0  0  0  0  0  0  0  0  0  0  0  0
    1.9920   30.8100    6.8450 C   0  0  0  0  0  0  0  0  0  0  0  0
    2.6040   29.7060    7.4190 C   0  0  0  0  0  0  0  0  0  0  0  0
    2.0850   29.1620    8.5970 C   0  0  0  0  0  0  0  0  0  0  0  0
    0.9630   29.6920    9.2240 C   0  0  0  0  0  0  0  0  0  0  0  0
    0.5360   29.1100   10.3470 N   0  0  0  0  0  0  0  0  0  0  0  0
   -1.9090   25.4270   12.5250 N   0  0  0  0  0  0  0  0  0  0  0  0
   -0.8180   24.4570   12.4250 C   0  0  0  0  0  0  0  0  0  0  0  0
   -0.6050   23.5440   13.6300 C   0  0  0  0  0  0  0  0  0  0  0  0
   -1.9500   23.2420   14.2960 N   0  0  0  0  0  0  0  0  0  0  0  0
   -1.9510   22.0400   15.2410 C   0  0  1  0  0  0  0  0  0  0  0  0
   -3.2550   22.0700   16.0860 C   0  0  0  0  0  0  0  0  0  0  0  0
   -3.2870   20.8910   17.0750 C   0  0  2  0  0  0  0  0  0  0  0  0
   -2.0900   20.9970   18.0280 C   0  0  0  0  0  0  0  0  0  0  0  0
   -0.7830   20.9580   17.2260 C   0  0  1  0  0  0  0  0  0  0  0  0
   -0.7010   19.6380   16.4410 C   0  0  0  0  0  0  0  0  0  0  0  0
   -1.8940   19.5230   15.4770 C   0  0  1  0  0  0  0  0  0  0  0  0
   -3.2010   19.5720   16.2870 C   0  0  0  0  0  0  0  0  0  0  0  0
   -1.8670   20.6980   14.4790 C   0  0  0  0  0  0  0  0  0  0  0  0
   -0.7580   22.1330   16.2290 C   0  0  0  0  0  0  0  0  0  0  0  0
   -2.4120   24.5700   14.8960 C   0  0  0  0  0  0  0  0  0  0  0  0
   -2.5460   25.6690   13.8260 C   0  0  0  0  0  0  0  0  0  0  0  0
   -2.8182   28.2026   10.8276 H   0  0  0  0  0  0  0  0  0  0  0  0
   -3.2298   27.7110   12.5180 H   0  0  0  0  0  0  0  0  0  0  0  0
    0.3818   32.2368    7.0024 H   0  0  0  0  0  0  0  0  0  0  0  0
    2.3903   31.2468    5.9174 H   0  0  0  0  0  0  0  0  0  0  0  0
    3.4935   29.2607    6.9495 H   0  0  0  0  0  0  0  0  0  0  0  0
    2.5800   28.2865    9.0424 H   0  0  0  0  0  0  0  0  0  0  0  0
   -1.0183   23.8176   11.5526 H   0  0  0  0  0  0  0  0  0  0  0  0
    0.1000   25.0584   12.3498 H   0  0  0  0  0  0  0  0  0  0  0  0
   -0.1425   22.6029   13.2978 H   0  0  0  0  0  0  0  0  0  0  0  0
    0.0541   24.0457   14.3538 H   0  0  0  0  0  0  0  0  0  0  0  0
   -2.6010   23.0520   13.5260 H   0  0  0  0  0  0  0  0  0  0  0  0
   -3.3000   23.0146   16.6480 H   0  0  0  0  0  0  0  0  0  0  0  0
   -4.1182   21.9885   15.4090 H   0  0  0  0  0  0  0  0  0  0  0  0
   -4.2208   20.9150   17.6559 H   0  0  0  0  0  0  0  0  0  0  0  0
   -2.1489   21.9440   18.5846 H   0  0  0  0  0  0  0  0  0  0  0  0
   -2.1099   20.1519   18.7318 H   0  0  0  0  0  0  0  0  0  0  0  0
    0.0693   21.0347   17.9171 H   0  0  0  0  0  0  0  0  0  0  0  0
    0.2360   19.6144   15.8652 H   0  0  0  0  0  0  0  0  0  0  0  0
   -0.7262   18.7958   17.1481 H   0  0  0  0  0  0  0  0  0  0  0  0
   -1.8324   18.5740   14.9242 H   0  0  0  0  0  0  0  0  0  0  0  0
   -4.0573   19.5023   15.6001 H   0  0  0  0  0  0  0  0  0  0  0  0
   -3.2178   18.7292   16.9937 H   0  0  0  0  0  0  0  0  0  0  0  0
   -0.9311   20.6646   13.9020 H   0  0  0  0  0  0  0  0  0  0  0  0
   -2.7274   20.6142   13.7988 H   0  0  0  0  0  0  0  0  0  0  0  0
   -0.8228   23.0798   16.7852 H   0  0  0  0  0  0  0  0  0  0  0  0
    0.1799   22.0903   15.6558 H   0  0  0  0  0  0  0  0  0  0  0  0
   -3.3899   24.4215   15.3773 H   0  0  0  0  0  0  0  0  0  0  0  0
   -1.6557   24.8954   15.6254 H   0  0  0  0  0  0  0  0  0  0  0  0
   -3.6198   25.8231   13.6440 H   0  0  0  0  0  0  0  0  0  0  0  0
   -2.0119   26.5350   14.2439 H   0  0  0  0  0  0  0  0  0  0  0  0
  1  2  2  0
  2  3  1  0
  3  4  1  0
  4  5  1  0
  5  6  2  0
  6  7  1  0
  7  8  1  0
  7  9  2  0
  9 10  1  0
 10 11  2  0
 11 12  1  0
 12 13  2  0
 13 14  1  0
 14 15  2  0
  2 16  1  0
 16 17  1  0
 17 18  1  0
 18 19  1  0
 20 19  1  6
 20 21  1  0
 21 22  1  0
 22 23  1  0
 23 24  1  0
 24 25  1  0
 25 26  1  0
 26 27  1  0
 26 28  1  0
 24 29  1  0
 19 30  1  0
 30 31  1  0
 15  5  1  0
 31 16  1  0
 14  9  1  0
 28 20  1  0
 29 20  1  0
 27 22  1  0
  3 32  1  0
  3 33  1  0
 10 34  1  0
 11 35  1  0
 12 36  1  0
 13 37  1  0
 17 38  1  0
 17 39  1  0
 18 40  1  0
 18 41  1  0
 19 42  1  0
 21 43  1  0
 21 44  1  0
 22 45  1  1
 23 46  1  0
 23 47  1  0
 24 48  1  1
 25 49  1  0
 25 50  1  0
 26 51  1  6
 27 52  1  0
 27 53  1  0
 28 54  1  0
 28 55  1  0
 29 56  1  0
 29 57  1  0
 30 58  1  0
 30 59  1  0
 31 60  1  0
 31 61  1  0
M  CHG  2   8  -1  19   1
M  END
>  <vina_affinity>  (1) 
-9.628

$$$$
dec_C63541318
     RDKit          3D

 65 69  0  0  0  0  0  0  0  0999 V2000
    0.2700   17.0760   15.6790 C   0  0  0  0  0  0  0  0  0  0  0  0
   -0.3750   18.3980   15.3860 C   0  0  0  0  0  0  0  0  0  0  0  0
   -0.4180   18.9030   14.0860 C   0  0  0  0  0  0  0  0  0  0  0  0
   -1.0560   20.1240   13.7890 C   0  0  0  0  0  0  0  0  0  0  0  0
   -1.1440   20.4960   12.3350 C   0  0  0  0  0  0  0  0  0  0  0  0
   -1.6160   20.8820   14.8390 C   0  0  0  0  0  0  0  0  0  0  0  0
   -2.2330   22.1440   14.6410 N   0  0  0  0  0  0  0  0  0  0  0  0
   -1.5740   23.3590   14.5910 C   0  0  0  0  0  0  0  0  0  0  0  0
   -0.3650   23.5380   14.7310 O   0  0  0  0  0  0  0  0  0  0  0  0
   -2.4970   24.5430   14.3430 C   0  0  0  0  0  0  0  0  0  0  0  0
   -1.5600   26.0730   14.0320 S   0  0  0  0  0  0  0  0  0  0  0  0
   -1.8870   26.3580   12.2720 C   0  0  2  0  0  0  0  0  0  0  0  0
   -1.6820   25.2230   11.4110 N   0  0  0  0  0  0  0  0  0  0  0  0
   -0.3520   24.8170   11.3260 C   0  0  0  0  0  0  0  0  0  0  0  0
   -0.1040   23.4980   11.2100 N   0  0  0  0  0  0  0  0  0  0  0  0
    1.2060   23.1580   11.0850 C   0  0  0  0  0  0  0  0  0  0  0  0
    2.2280   24.0970   11.0520 C   0  0  0  0  0  0  0  0  0  0  0  0
    1.9920   25.4250   11.1430 N   0  0  0  0  0  0  0  0  0  0  0  0
    0.6870   25.7510   11.2950 C   0  0  0  0  0  0  0  0  0  0  0  0
    0.2770   27.1770   11.3690 C   0  0  0  0  0  0  0  0  0  0  0  0
    1.0310   28.0780   11.0150 O   0  0  0  0  0  0  0  0  0  0  0  0
   -1.0410   27.4230   11.7610 N   0  0  0  0  0  0  0  0  0  0  0  0
   -1.5150   28.8010   11.8490 C   0  0  0  0  0  0  0  0  0  0  0  0
   -2.2570   29.2620   10.5810 C   0  0  0  0  0  0  0  0  0  0  0  0
   -1.7420   30.5540   10.0190 C   0  0  0  0  0  0  0  0  0  0  0  0
   -0.7660   30.7380    9.1190 C   0  0  0  0  0  0  0  0  0  0  0  0
    0.1000   29.8780    8.3770 C   0  0  0  0  0  0  0  0  0  0  0  0
    1.0070   30.4380    7.5590 C   0  0  0  0  0  0  0  0  0  0  0  0
    1.1340   31.8830    7.4220 C   0  0  0  0  0  0  0  0  0  0  0  0
    0.3550   32.7600    8.0820 C   0  0  0  0  0  0  0  0  0  0  0  0
   -0.6640   32.2040    8.9840 C   0  0  0  0  0  0  0  0  0  0  0  0
   -1.5110   32.8280    9.7080 N   0  0  0  0  0  0  0  0  0  0  0  0
   -2.3350   31.8690   10.4590 C   0  0  0  0  0  0  0  0  0  0  0  0
   -1.6280   20.3480   16.1500 C   0  0  0  0  0  0  0  0  0  0  0  0
   -2.2610   21.0680   17.3140 C   0  0  0  0  0  0  0  0  0  0  0  0
   -1.0050   19.1130   16.4050 C   0  0  0  0  0  0  0  0  0  0  0  0
    0.3388   16.9349   16.7677 H   0  0  0  0  0  0  0  0  0  0  0  0
   -0.3351   16.2679   15.2421 H   0  0  0  0  0  0  0  0  0  0  0  0
    1.2793   17.0556   15.2421 H   0  0  0  0  0  0  0  0  0  0  0  0
    0.0576   18.3343   13.2733 H   0  0  0  0  0  0  0  0  0  0  0  0
   -1.3964   21.5628   12.2441 H   0  0  0  0  0  0  0  0  0  0  0  0
   -0.1760   20.3055   11.8485 H   0  0  0  0  0  0  0  0  0  0  0  0
   -1.9240   19.8919   11.8485 H   0  0  0  0  0  0  0  0  0  0  0  0
   -3.2090   22.1920   14.9030 H   0  0  0  0  0  0  0  0  0  0  0  0
   -3.1272   24.3267   13.4678 H   0  0  0  0  0  0  0  0  0  0  0  0
   -3.1112   24.6937   15.2430 H   0  0  0  0  0  0  0  0  0  0  0  0
   -2.9575   26.6097   12.2471 H   0  0  0  0  0  0  0  0  0  0  0  0
   -2.2920   24.4290   11.5990 H   0  0  0  0  0  0  0  0  0  0  0  0
    1.4678   22.0925   11.0066 H   0  0  0  0  0  0  0  0  0  0  0  0
    3.2661   23.7483   10.9482 H   0  0  0  0  0  0  0  0  0  0  0  0
   -2.2002   28.8824   12.7057 H   0  0  0  0  0  0  0  0  0  0  0  0
   -0.6323   29.4466   11.9678 H   0  0  0  0  0  0  0  0  0  0  0  0
   -2.1504   28.4818    9.8129 H   0  0  0  0  0  0  0  0  0  0  0  0
   -3.3064   29.4297   10.8649 H   0  0  0  0  0  0  0  0  0  0  0  0
    0.0262   28.7847    8.4728 H   0  0  0  0  0  0  0  0  0  0  0  0
    1.6736   29.7861    6.9753 H   0  0  0  0  0  0  0  0  0  0  0  0
    1.9059   32.2773    6.7447 H   0  0  0  0  0  0  0  0  0  0  0  0
    0.4756   33.8456    7.9521 H   0  0  0  0  0  0  0  0  0  0  0  0
   -1.5650   33.8420    9.7460 H   0  0  0  0  0  0  0  0  0  0  0  0
   -2.2310   32.0135   11.5445 H   0  0  0  0  0  0  0  0  0  0  0  0
   -3.4146   31.9601   10.2690 H   0  0  0  0  0  0  0  0  0  0  0  0
   -1.8863   20.6419   18.2564 H   0  0  0  0  0  0  0  0  0  0  0  0
   -2.0047   22.1367   17.2674 H   0  0  0  0  0  0  0  0  0  0  0  0
   -3.3537   20.9507   17.2674 H   0  0  0  0  0  0  0  0  0  0  0  0
   -1.0147   18.7036   17.4259 H   0  0  0  0  0  0  0  0  0  0  0  0
  1  2  1  0
  2  3  2  0
  3  4  1  0
  4  5  1  0
  4  6  2  0
  6  7  1  0
  7  8  1  0
  8  9  2  0
  8 10  1  0
 10 11  1  0
 11 12  1  0
 12 13  1  0
 13 14  1  0
 14 15  2  0
 15 16  1  0
 16 17  2  0
 17 18  1  0
 18 19  2  0
 19 20  1  0
 20 21  2  0
 20 22  1  0
 22 23  1  0
 23 24  1  0
 24 25  1  0
 25 26  2  0
 26 27  1  0
 27 28  2  0
 28 29  1  0
 29 30  2  0
 30 31  1  0
 31 32  2  0
 32 33  1  0
  6 34  1  0
 34 35  1  0
 34 36  2  0
 36  2  1  0
 22 12  1  0
 33 25  1  0
 19 14  1  0
 31 26  1  0
  1 37  1  0
  1 38  1  0
  1 39  1  0
  3 40  1  0
  5 41  1  0
  5 42  1  0
  5 43  1  0
  7 44  1  0
 10 45  1  0
 10 46  1  0
 12 47  1  1
 13 48  1  0
 16 49  1  0
 17 50  1  0
 23 51  1  0
 23 52  1  0
 24 53  1  0
 24 54  1  0
 27 55  1  0
 28 56  1  0
 29 57  1  0
 30 58  1  0
 32 59  1  0
 33 60  1  0
 33 61  1  0
 35 62  1  0
 35 63  1  0
 35 64  1  0
 36 65  1  0
M  CHG  1  32   1
M  END
>  <vina_affinity>  (1) 
-9.586

$$$$
dec_C39467885
     RDKit          3D

 35 37  0  0  0  0  0  0  0  0999 V2000
    1.0940   22.9210   12.6860 C   0  0  0  0  0  0  0  0  0  0  0  0
    0.6390   24.1960   13.0890 O   0  0  0  0  0  0  0  0  0  0  0  0
   -0.3550   25.0150   12.1190 P   0  0  2  0  0  5  0  0  0  0  0  0
   -1.1450   24.1230   11.2110 O   0  0  0  0  0  0  0  0  0  0  0  0
    0.5650   26.1770   11.3640 N   0  0  0  0  0  0  0  0  0  0  0  0
    0.1200   27.5650   11.5400 N   0  0  0  0  0  0  0  0  0  0  0  0
    0.7850   28.4530   10.5720 C   0  0  0  0  0  0  0  0  0  0  0  0
   -0.0520   28.8110    9.3260 C   0  0  2  0  0  0  0  0  0  0  0  0
    0.7590   29.6950    8.4030 C   0  0  0  0  0  0  0  0  0  0  0  0
    0.4820   30.9930    8.2110 C   0  0  0  0  0  0  0  0  0  0  0  0
    1.4800   31.9410    7.1660 Cl  0  0  0  0  0  0  0  0  0  0  0  0
   -0.6370   31.6270    8.8810 C   0  0  0  0  0  0  0  0  0  0  0  0
   -0.7870   32.9910    8.7560 O   0  0  0  0  0  0  0  0  0  0  0  0
   -1.5310   30.9180    9.5790 C   0  0  0  0  0  0  0  0  0  0  0  0
   -1.4360   29.4180    9.7270 C   0  0  2  0  0  0  0  0  0  0  0  0
   -1.8710   28.9840   11.1410 C   0  0  0  0  0  0  0  0  0  0  0  0
   -1.3590   27.5760   11.4350 C   0  0  2  0  0  0  0  0  0  0  0  0
   -1.9420   26.9990   12.7410 C   0  0  0  0  0  0  0  0  0  0  0  0
   -1.3080   25.7930   13.1720 O   0  0  0  0  0  0  0  0  0  0  0  0
    1.3116   22.3113   13.5754 H   0  0  0  0  0  0  0  0  0  0  0  0
    0.3165   22.4275   12.0844 H   0  0  0  0  0  0  0  0  0  0  0  0
    2.0083   23.0312   12.0844 H   0  0  0  0  0  0  0  0  0  0  0  0
    1.5440   26.0720   11.6110 H   0  0  0  0  0  0  0  0  0  0  0  0
    1.0421   29.3889   11.0896 H   0  0  0  0  0  0  0  0  0  0  0  0
    1.6613   27.9001   10.2025 H   0  0  0  0  0  0  0  0  0  0  0  0
   -0.2907   27.8957    8.7645 H   0  0  0  0  0  0  0  0  0  0  0  0
    1.6121   29.2538    7.8668 H   0  0  0  0  0  0  0  0  0  0  0  0
   -0.3570   33.2570    7.9220 H   0  0  0  0  0  0  0  0  0  0  0  0
   -2.3656   31.4466   10.0627 H   0  0  0  0  0  0  0  0  0  0  0  0
   -2.1396   28.9966    8.9940 H   0  0  0  0  0  0  0  0  0  0  0  0
   -1.4563   29.6844   11.8809 H   0  0  0  0  0  0  0  0  0  0  0  0
   -2.9695   28.9884   11.1984 H   0  0  0  0  0  0  0  0  0  0  0  0
   -1.6886   26.9487   10.5937 H   0  0  0  0  0  0  0  0  0  0  0  0
   -1.8290   27.7528   13.5341 H   0  0  0  0  0  0  0  0  0  0  0  0
   -2.9954   26.7534   12.5407 H   0  0  0  0  0  0  0  0  0  0  0  0
  1  2  1  0
  3  2  1  1
  3  4  2  0
  3  5  1  0
  5  6  1  0
  6  7  1  0
  7  8  1  0
  8  9  1  0
  9 10  2  0
 10 11  1  0
 10 12  1  0
 12 13  1  0
 12 14  2  0
 14 15  1  0
 15 16  1  0
 16 17  1  0
 17 18  1  0
 18 19  1  0
 19  3  1  0
 17  6  1  0
 15  8  1  0
  1 20  1  0
  1 21  1  0
  1 22  1  0
  5 23  1  0
  7 24  1  0
  7 25  1  0
  8 26  1  6
  9 27  1  0
 13 28  1  0
 14 29  1  0
 15 30  1  6
 16 31  1  0
 16 32  1  0
 17 33  1  6
 18 34  1  0
 18 35  1  0
M  END
>  <vina_affinity>  (1) 
-7.529

$$$$
dec_C20153151
     RDKit          3D

 60 63  0  0  0  0  0  0  0  0999 V2000
    2.3440   24.4600   10.4250 C   0  0  0  0  0  0  0  0  0  0  0  0
    1.8520   25.3860   11.3880 O   0  0  0  0  0  0  0  0  0  0  0  0
    1.2640   26.5330   10.9040 C   0  0  0  0  0  0  0  0  0  0  0  0
    1.9180   27.5110   10.1530 C   0  0  0  0  0  0  0  0  0  0  0  0
    1.2260   28.6490    9.7300 C   0  0  0  0  0  0  0  0  0  0  0  0
   -0.1230   28.8400   10.0580 C   0  0  0  0  0  0  0  0  0  0  0  0
   -0.8270   30.0480    9.6290 C   0  0  0  0  0  0  0  0  0  0  0  0
   -1.4510   30.4440    8.4610 C   0  0  0  0  0  0  0  0  0  0  0  0
   -1.9580   31.7470    8.6870 C   0  0  0  0  0  0  0  0  0  0  0  0
   -1.6170   32.0790    9.9810 C   0  0  0  0  0  0  0  0  0  0  0  0
   -1.8470   33.2600   10.8410 C   0  0  0  0  0  0  0  0  0  0  0  0
   -3.0260   33.0330   11.6050 O   0  0  0  0  0  0  0  0  0  0  0  0
   -0.9280   31.0510   10.5530 O   0  0  0  0  0  0  0  0  0  0  0  0
   -0.7720   27.8500   10.8160 C   0  0  0  0  0  0  0  0  0  0  0  0
   -0.1020   26.6920   11.2200 C   0  0  0  0  0  0  0  0  0  0  0  0
   -0.6910   25.6730   12.0090 N   0  0  0  0  0  0  0  0  0  0  0  0
   -1.0820   25.6440   13.3470 C   0  0  0  0  0  0  0  0  0  0  0  0
   -1.3160   26.9550   14.3550 S   0  0  0  0  0  0  0  0  0  0  0  0
   -1.2690   24.3040   13.7250 N   0  0  0  0  0  0  0  0  0  0  0  0
   -1.7360   23.7990   14.9340 C   0  0  0  0  0  0  0  0  0  0  0  0
   -2.6640   24.2620   15.5850 O   0  0  0  0  0  0  0  0  0  0  0  0
   -1.1630   22.4870   15.3430 C   0  0  0  0  0  0  0  0  0  0  0  0
   -1.7190   21.7300   16.3790 C   0  0  0  0  0  0  0  0  0  0  0  0
   -1.1530   20.4970   16.7270 C   0  0  0  0  0  0  0  0  0  0  0  0
   -0.0340   19.9640   16.0560 C   0  0  0  0  0  0  0  0  0  0  0  0
    0.4060   18.7180   16.5070 N   0  0  0  0  0  0  0  0  0  0  0  0
    0.7780   18.5490   17.9290 C   0  0  0  0  0  0  0  0  0  0  0  0
    1.5350   17.2200   18.0910 C   0  0  0  0  0  0  0  0  0  0  0  0
    0.7340   16.1120   17.6450 O   0  0  0  0  0  0  0  0  0  0  0  0
    0.3800   16.2680   16.2610 C   0  0  0  0  0  0  0  0  0  0  0  0
   -0.3940   17.5750   16.0110 C   0  0  0  0  0  0  0  0  0  0  0  0
    0.4910   20.7520   15.0180 C   0  0  0  0  0  0  0  0  0  0  0  0
    1.6830   20.3580   14.3080 N   0  0  0  0  0  0  0  0  0  0  0  0
    1.5620   20.1150   13.0990 O   0  0  0  0  0  0  0  0  0  0  0  0
    2.7370   20.3210   14.9550 O   0  0  0  0  0  0  0  0  0  0  0  0
   -0.0580   21.9910   14.6490 C   0  0  0  0  0  0  0  0  0  0  0  0
    2.7999   23.6020   10.9408 H   0  0  0  0  0  0  0  0  0  0  0  0
    1.5130   24.1098    9.7951 H   0  0  0  0  0  0  0  0  0  0  0  0
    3.0993   24.9527    9.7951 H   0  0  0  0  0  0  0  0  0  0  0  0
    2.9797   27.3858    9.8937 H   0  0  0  0  0  0  0  0  0  0  0  0
    1.7491   29.4077    9.1294 H   0  0  0  0  0  0  0  0  0  0  0  0
   -1.5373   29.8591    7.5334 H   0  0  0  0  0  0  0  0  0  0  0  0
   -2.5139   32.3708    7.9716 H   0  0  0  0  0  0  0  0  0  0  0  0
   -0.9890   33.4026   11.5144 H   0  0  0  0  0  0  0  0  0  0  0  0
   -1.9636   34.1623   10.2228 H   0  0  0  0  0  0  0  0  0  0  0  0
   -2.8670   33.4350   12.4740 H   0  0  0  0  0  0  0  0  0  0  0  0
   -1.8265   27.9893   11.0963 H   0  0  0  0  0  0  0  0  0  0  0  0
   -1.1270   24.9590   11.4270 H   0  0  0  0  0  0  0  0  0  0  0  0
   -0.7220   23.6700   13.1610 H   0  0  0  0  0  0  0  0  0  0  0  0
   -2.6008   22.1029   16.9206 H   0  0  0  0  0  0  0  0  0  0  0  0
   -1.5979   19.9239   17.5538 H   0  0  0  0  0  0  0  0  0  0  0  0
    1.4235   19.3824   18.2434 H   0  0  0  0  0  0  0  0  0  0  0  0
   -0.1279   18.5405   18.5529 H   0  0  0  0  0  0  0  0  0  0  0  0
    2.4594   17.2579   17.4960 H   0  0  0  0  0  0  0  0  0  0  0  0
    1.7676   17.0773   19.1566 H   0  0  0  0  0  0  0  0  0  0  0  0
    1.2996   16.2782   15.6575 H   0  0  0  0  0  0  0  0  0  0  0  0
   -0.2702   15.4270   15.9782 H   0  0  0  0  0  0  0  0  0  0  0  0
   -0.5762   17.6940   14.9327 H   0  0  0  0  0  0  0  0  0  0  0  0
   -1.3572   17.5408   16.5411 H   0  0  0  0  0  0  0  0  0  0  0  0
    0.3794   22.5661   13.8196 H   0  0  0  0  0  0  0  0  0  0  0  0
  1  2  1  0
  2  3  1  0
  3  4  2  0
  4  5  1  0
  5  6  2  0
  6  7  1  0
  7  8  2  0
  8  9  1  0
  9 10  2  0
 10 11  1  0
 11 12  1  0
 10 13  1  0
  6 14  1  0
 14 15  2  0
 15 16  1  0
 16 17  1  0
 17 18  2  0
 17 19  1  0
 19 20  1  0
 20 21  2  0
 20 22  1  0
 22 23  2  0
 23 24  1  0
 24 25  2  0
 25 26  1  0
 26 27  1  0
 27 28  1  0
 28 29  1  0
 29 30  1  0
 30 31  1  0
 25 32  1  0
 32 33  1  0
 33 34  2  0
 33 35  1  0
 32 36  2  0
 15  3  1  0
 36 22  1  0
 13  7  1  0
 31 26  1  0
  1 37  1  0
  1 38  1  0
  1 39  1  0
  4 40  1  0
  5 41  1  0
  8 42  1  0
  9 43  1  0
 11 44  1  0
 11 45  1  0
 12 46  1  0
 14 47  1  0
 16 48  1  0
 19 49  1  0
 23 50  1  0
 24 51  1  0
 27 52  1  0
 27 53  1  0
 28 54  1  0
 28 55  1  0
 30 56  1  0
 30 57  1  0
 31 58  1  0
 31 59  1  0
 36 60  1  0
M  CHG  2  33   1  35  -1
M  END
>  <vina_affinity>  (1) 
-8.546

$$$$
dec_C38556175
     RDKit          3D

 47 50  0  0  0  0  0  0  0  0999 V2000
   -3.4310   26.6830   12.7050 N   0  0  0  0  0  0  0  0  0  0  0  0
   -2.4820   25.7300   13.3710 N   0  0  0  0  0  0  0  0  0  0  0  0
   -1.0810   26.2150   13.3000 C   0  0  1  0  0  0  0  0  0  0  0  0
   -0.5560   26.8480   11.6880 S   0  0  0  0  0  0  0  0  0  0  0  0
   -0.7280   28.6230   12.0320 C   0  0  0  0  0  0  0  0  0  0  0  0
   -1.5580   29.2760   10.9480 C   0  0  0  0  0  0  0  0  0  0  0  0
   -2.7630   29.0380   10.8440 O   0  0  0  0  0  0  0  0  0  0  0  0
   -0.9160   30.2130    9.9740 C   0  0  0  0  0  0  0  0  0  0  0  0
   -1.2500   31.5730    9.8940 C   0  0  0  0  0  0  0  0  0  0  0  0
   -0.6120   32.3980    8.9630 C   0  0  0  0  0  0  0  0  0  0  0  0
    0.3530   31.8660    8.1150 C   0  0  0  0  0  0  0  0  0  0  0  0
    0.9600   32.6630    7.2260 F   0  0  0  0  0  0  0  0  0  0  0  0
    0.6930   30.5220    8.1740 C   0  0  0  0  0  0  0  0  0  0  0  0
    0.0570   29.6930    9.1020 C   0  0  0  0  0  0  0  0  0  0  0  0
   -0.9460   27.2590   14.3240 N   0  0  0  0  0  0  0  0  0  0  0  0
   -2.0740   27.0680   15.2490 N   0  0  0  0  0  0  0  0  0  0  0  0
   -2.6950   25.7870   14.8440 C   0  0  1  0  0  0  0  0  0  0  0  0
   -4.1520   25.6260   15.3520 C   0  0  1  0  0  0  0  0  0  0  0  0
   -4.7990   24.3420   14.9610 C   0  0  0  0  0  0  0  0  0  0  0  0
   -5.0610   23.6940   16.0990 C   0  0  0  0  0  0  0  0  0  0  0  0
   -5.7100   22.3770   16.2340 C   0  0  0  0  0  0  0  0  0  0  0  0
   -5.0300   21.2140   15.8350 C   0  0  0  0  0  0  0  0  0  0  0  0
   -5.6240   19.9530   15.9470 C   0  0  0  0  0  0  0  0  0  0  0  0
   -6.9150   19.8340   16.4560 C   0  0  0  0  0  0  0  0  0  0  0  0
   -7.6090   20.9730   16.8520 C   0  0  0  0  0  0  0  0  0  0  0  0
   -7.0130   22.2340   16.7410 C   0  0  0  0  0  0  0  0  0  0  0  0
   -4.6550   24.4190   17.1970 N   0  0  0  0  0  0  0  0  0  0  0  0
   -4.1410   25.5170   16.8440 N   0  0  0  0  0  0  0  0  0  0  0  0
   -4.3720   26.2750   12.6900 H   0  0  0  0  0  0  0  0  0  0  0  0
   -3.1690   26.7700   11.7140 H   0  0  0  0  0  0  0  0  0  0  0  0
   -0.4205   25.3522   13.4712 H   0  0  0  0  0  0  0  0  0  0  0  0
   -1.2236   28.7604   13.0044 H   0  0  0  0  0  0  0  0  0  0  0  0
    0.2690   29.0871   12.0559 H   0  0  0  0  0  0  0  0  0  0  0  0
   -2.0151   31.9910   10.5648 H   0  0  0  0  0  0  0  0  0  0  0  0
   -0.8727   33.4649    8.9015 H   0  0  0  0  0  0  0  0  0  0  0  0
    1.4565   30.1126    7.4962 H   0  0  0  0  0  0  0  0  0  0  0  0
    0.3194   28.6259    9.1507 H   0  0  0  0  0  0  0  0  0  0  0  0
   -1.0560   28.1450   13.8260 H   0  0  0  0  0  0  0  0  0  0  0  0
   -1.7630   26.9790   16.2210 H   0  0  0  0  0  0  0  0  0  0  0  0
   -2.2363   24.9059   15.3165 H   0  0  0  0  0  0  0  0  0  0  0  0
   -4.6848   26.4901   14.9282 H   0  0  0  0  0  0  0  0  0  0  0  0
   -5.0172   23.9969   13.9396 H   0  0  0  0  0  0  0  0  0  0  0  0
   -4.0118   21.2969   15.4271 H   0  0  0  0  0  0  0  0  0  0  0  0
   -5.0716   19.0550   15.6331 H   0  0  0  0  0  0  0  0  0  0  0  0
   -7.3842   18.8431   16.5446 H   0  0  0  0  0  0  0  0  0  0  0  0
   -8.6291   20.8819   17.2535 H   0  0  0  0  0  0  0  0  0  0  0  0
   -7.5728   23.1272   17.0554 H   0  0  0  0  0  0  0  0  0  0  0  0
  1  2  1  0
  2  3  1  0
  3  4  1  0
  4  5  1  0
  5  6  1  0
  6  7  2  0
  6  8  1  0
  8  9  2  0
  9 10  1  0
 10 11  2  0
 11 12  1  0
 11 13  1  0
 13 14  2  0
  3 15  1  0
 15 16  1  0
 16 17  1  0
 17 18  1  0
 18 19  1  0
 19 20  2  0
 20 21  1  0
 21 22  2  0
 22 23  1  0
 23 24  2  0
 24 25  1  0
 25 26  2  0
 20 27  1  0
 27 28  2  0
 17  2  1  0
 28 18  1  0
 14  8  1  0
 26 21  1  0
  1 29  1  0
  1 30  1  0
  3 31  1  1
  5 32  1  0
  5 33  1  0
  9 34  1  0
 10 35  1  0
 13 36  1  0
 14 37  1  0
 15 38  1  0
 16 39  1  0
 17 40  1  1
 18 41  1  1
 19 42  1  0
 22 43  1  0
 23 44  1  0
 24 45  1  0
 25 46  1  0
 26 47  1  0
M  END
>  <vina_affinity>  (1) 
-8.731

$$$$
dec_C03426141
     RDKit          3D

 55 57  0  0  0  0  0  0  0  0999 V2000
   -3.2120   30.4600    9.7120 C   0  0  0  0  0  0  0  0  0  0  0  0
   -2.0290   30.7250    8.9590 O   0  0  0  0  0  0  0  0  0  0  0  0
   -0.9760   31.1630    9.7090 C   0  0  0  0  0  0  0  0  0  0  0  0
   -0.8500   32.3230   10.0860 O   0  0  0  0  0  0  0  0  0  0  0  0
   -0.0250   30.0910   10.0450 C   0  0  0  0  0  0  0  0  0  0  0  0
    0.0270   29.4700   11.2860 C   0  0  0  0  0  0  0  0  0  0  0  0
   -0.7700   29.6920   12.5240 C   0  0  0  0  0  0  0  0  0  0  0  0
    0.9940   28.5070   11.2360 N   0  0  0  0  0  0  0  0  0  0  0  0
    1.5770   28.4500    9.9900 C   0  0  0  0  0  0  0  0  0  0  0  0
    2.5850   27.4260    9.7350 C   0  0  0  0  0  0  0  0  0  0  0  0
    3.6820   27.7350    9.2580 O   0  0  0  0  0  0  0  0  0  0  0  0
    2.2730   25.9680   10.0730 C   0  0  0  0  0  0  0  0  0  0  0  0
    2.1470   25.7390   11.4810 O   0  0  0  0  0  0  0  0  0  0  0  0
    1.5520   24.5540   11.8010 C   0  0  0  0  0  0  0  0  0  0  0  0
    2.1590   23.5190   12.0330 O   0  0  0  0  0  0  0  0  0  0  0  0
    0.0460   24.7050   11.7770 C   0  0  2  0  0  0  0  0  0  0  0  0
   -0.4110   25.8740   12.6370 C   0  0  0  0  0  0  0  0  0  0  0  0
   -0.6960   25.2390   13.9760 C   0  0  0  0  0  0  0  0  0  0  0  0
   -0.7190   25.8770   15.0170 O   0  0  0  0  0  0  0  0  0  0  0  0
   -0.8670   23.8690   13.7700 N   0  0  0  0  0  0  0  0  0  0  0  0
   -1.3780   22.9430   14.7160 C   0  0  0  0  0  0  0  0  0  0  0  0
   -2.7010   23.0940   15.1670 C   0  0  0  0  0  0  0  0  0  0  0  0
   -3.2580   22.2010   16.0860 C   0  0  0  0  0  0  0  0  0  0  0  0
   -2.4960   21.1510   16.5890 C   0  0  0  0  0  0  0  0  0  0  0  0
   -1.1740   20.9990   16.1750 C   0  0  0  0  0  0  0  0  0  0  0  0
   -0.6160   21.8810   15.2370 C   0  0  0  0  0  0  0  0  0  0  0  0
    0.7300   21.8180   14.9690 O   0  0  0  0  0  0  0  0  0  0  0  0
    1.0810   20.6710   14.1930 C   0  0  0  0  0  0  0  0  0  0  0  0
   -0.6520   23.5050   12.3890 C   0  0  0  0  0  0  0  0  0  0  0  0
    1.0070   29.4750    9.2330 C   0  0  0  0  0  0  0  0  0  0  0  0
    1.3630   29.8890    7.8420 C   0  0  0  0  0  0  0  0  0  0  0  0
   -2.9820   30.5115   10.7864 H   0  0  0  0  0  0  0  0  0  0  0  0
   -3.9793   31.2085    9.4650 H   0  0  0  0  0  0  0  0  0  0  0  0
   -3.5866   29.4557    9.4650 H   0  0  0  0  0  0  0  0  0  0  0  0
   -0.1356   29.5153   13.4051 H   0  0  0  0  0  0  0  0  0  0  0  0
   -1.1406   30.7276   12.5407 H   0  0  0  0  0  0  0  0  0  0  0  0
   -1.6226   28.9971   12.5407 H   0  0  0  0  0  0  0  0  0  0  0  0
    1.2460   27.8800   11.9930 H   0  0  0  0  0  0  0  0  0  0  0  0
    1.3272   25.6890    9.5856 H   0  0  0  0  0  0  0  0  0  0  0  0
    3.1139   25.3574    9.7123 H   0  0  0  0  0  0  0  0  0  0  0  0
   -0.2070   24.8371   10.7147 H   0  0  0  0  0  0  0  0  0  0  0  0
    0.3814   26.6321   12.7225 H   0  0  0  0  0  0  0  0  0  0  0  0
   -1.2828   26.3979   12.2180 H   0  0  0  0  0  0  0  0  0  0  0  0
   -3.3084   23.9299   14.7897 H   0  0  0  0  0  0  0  0  0  0  0  0
   -4.3007   22.3283   16.4124 H   0  0  0  0  0  0  0  0  0  0  0  0
   -2.9346   20.4449   17.3094 H   0  0  0  0  0  0  0  0  0  0  0  0
   -0.5635   20.1817   16.5865 H   0  0  0  0  0  0  0  0  0  0  0  0
    1.3359   19.8380   14.8646 H   0  0  0  0  0  0  0  0  0  0  0  0
    0.2298   20.3831   13.5585 H   0  0  0  0  0  0  0  0  0  0  0  0
    1.9475   20.9088   13.5585 H   0  0  0  0  0  0  0  0  0  0  0  0
   -0.0170   22.6096   12.3185 H   0  0  0  0  0  0  0  0  0  0  0  0
   -1.5922   23.2627   11.8719 H   0  0  0  0  0  0  0  0  0  0  0  0
    2.0798   30.7226    7.8796 H   0  0  0  0  0  0  0  0  0  0  0  0
    1.8166   29.0390    7.3112 H   0  0  0  0  0  0  0  0  0  0  0  0
    0.4546   30.2102    7.3112 H   0  0  0  0  0  0  0  0  0  0  0  0
  1  2  1  0
  2  3  1  0
  3  4  2  0
  3  5  1  0
  5  6  2  0
  6  7  1  0
  6  8  1  0
  8  9  1  0
  9 10  1  0
 10 11  2  0
 10 12  1  0
 12 13  1  0
 13 14  1  0
 14 15  2  0
 14 16  1  0
 16 17  1  0
 17 18  1  0
 18 19  2  0
 18 20  1  0
 20 21  1  0
 21 22  2  0
 22 23  1  0
 23 24  2  0
 24 25  1  0
 25 26  2  0
 26 27  1  0
 27 28  1  0
 20 29  1  0
  9 30  2  0
 30 31  1  0
 30  5  1  0
 29 16  1  0
 26 21  1  0
  1 32  1  0
  1 33  1  0
  1 34  1  0
  7 35  1  0
  7 36  1  0
  7 37  1  0
  8 38  1  0
 12 39  1  0
 12 40  1  0
 16 41  1  6
 17 42  1  0
 17 43  1  0
 22 44  1  0
 23 45  1  0
 24 46  1  0
 25 47  1  0
 28 48  1  0
 28 49  1  0
 28 50  1  0
 29 51  1  0
 29 52  1  0
 31 53  1  0
 31 54  1  0
 31 55  1  0
M  END
>  <vina_affinity>  (1) 
-7.602

$$$$
dec_C36504949
     RDKit          3D

 66 69  0  0  0  0  0  0  0  0999 V2000
    4.6060   25.4020    5.8860 C   0  0  0  0  0  0  0  0  0  0  0  0
    5.1190   25.6180    7.1970 O   0  0  0  0  0  0  0  0  0  0  0  0
    4.2360   26.0960    8.1290 C   0  0  0  0  0  0  0  0  0  0  0  0
    3.2360   25.3610    8.7710 C   0  0  0  0  0  0  0  0  0  0  0  0
    2.3820   25.9740    9.7110 C   0  0  0  0  0  0  0  0  0  0  0  0
    1.2880   25.2000   10.4540 C   0  0  1  0  0  0  0  0  0  0  0  0
    1.8080   24.2730   11.5870 C   0  0  0  0  0  0  0  0  0  0  0  0
    2.8720   24.4980   12.1650 O   0  0  0  0  0  0  0  0  0  0  0  0
    1.0100   23.2000   11.9200 N   0  0  0  0  0  0  0  0  0  0  0  0
    1.3650   22.2790   12.9940 C   0  0  0  0  0  0  0  0  0  0  0  0
    0.2920   22.3040   14.0970 C   0  0  0  0  0  0  0  0  0  0  0  0
    0.3550   21.0550   14.9650 C   0  0  0  0  0  0  0  0  0  0  0  0
    0.1050   19.7820   14.1550 C   0  0  0  0  0  0  0  0  0  0  0  0
    0.4440   19.9300   12.6710 C   0  0  0  0  0  0  0  0  0  0  0  0
    1.6280   20.8650   12.4490 C   0  0  0  0  0  0  0  0  0  0  0  0
    0.1470   26.0680   10.8470 N   0  0  0  0  0  0  0  0  0  0  0  0
    0.2860   26.8860   12.0560 C   0  0  0  0  0  0  0  0  0  0  0  0
   -0.5870   26.3370   13.1330 C   0  0  0  0  0  0  0  0  0  0  0  0
   -0.8000   26.6920   14.4480 C   0  0  0  0  0  0  0  0  0  0  0  0
   -1.7690   25.7960   14.9530 C   0  0  0  0  0  0  0  0  0  0  0  0
   -2.0880   24.9520   13.9150 C   0  0  0  0  0  0  0  0  0  0  0  0
   -1.3750   25.2700   12.8040 O   0  0  0  0  0  0  0  0  0  0  0  0
   -0.7390   26.5370    9.8710 C   0  0  0  0  0  0  0  0  0  0  0  0
   -1.1890   25.8460    8.9610 O   0  0  0  0  0  0  0  0  0  0  0  0
   -1.1300   27.9650    9.9090 C   0  0  0  0  0  0  0  0  0  0  0  0
   -2.2720   28.3400   10.6240 C   0  0  0  0  0  0  0  0  0  0  0  0
   -2.6590   29.6820   10.6650 C   0  0  0  0  0  0  0  0  0  0  0  0
   -1.9170   30.6460    9.9780 C   0  0  0  0  0  0  0  0  0  0  0  0
   -0.7900   30.2570    9.2390 C   0  0  0  0  0  0  0  0  0  0  0  0
   -0.0210   31.2640    8.4980 N   0  0  0  0  0  0  0  0  0  0  0  0
    0.9430   30.8710    7.8250 O   0  0  0  0  0  0  0  0  0  0  0  0
   -0.3830   32.4460    8.5860 O   0  0  0  0  0  0  0  0  0  0  0  0
   -0.3940   28.9160    9.1940 C   0  0  0  0  0  0  0  0  0  0  0  0
    2.5630   27.3400   10.0020 C   0  0  0  0  0  0  0  0  0  0  0  0
    3.5670   28.0760    9.3740 C   0  0  0  0  0  0  0  0  0  0  0  0
    4.3890   27.4490    8.4490 C   0  0  0  0  0  0  0  0  0  0  0  0
    5.3660   28.1930    7.8450 O   0  0  0  0  0  0  0  0  0  0  0  0
    3.5941   24.9760    5.9538 H   0  0  0  0  0  0  0  0  0  0  0  0
    4.5653   26.3594    5.3458 H   0  0  0  0  0  0  0  0  0  0  0  0
    5.2624   24.7039    5.3458 H   0  0  0  0  0  0  0  0  0  0  0  0
    3.1135   24.2924    8.5406 H   0  0  0  0  0  0  0  0  0  0  0  0
    0.8821   24.4891    9.7193 H   0  0  0  0  0  0  0  0  0  0  0  0
    0.0790   23.1370   11.5130 H   0  0  0  0  0  0  0  0  0  0  0  0
    2.3080   22.6119   13.4522 H   0  0  0  0  0  0  0  0  0  0  0  0
    0.4519   23.1884   14.7312 H   0  0  0  0  0  0  0  0  0  0  0  0
   -0.6966   22.3405   13.6160 H   0  0  0  0  0  0  0  0  0  0  0  0
    1.3518   20.9927   15.4261 H   0  0  0  0  0  0  0  0  0  0  0  0
   -0.4324   21.1319   15.7292 H   0  0  0  0  0  0  0  0  0  0  0  0
    0.7228   18.9745   14.5750 H   0  0  0  0  0  0  0  0  0  0  0  0
   -0.9704   19.5604   14.2219 H   0  0  0  0  0  0  0  0  0  0  0  0
    0.6916   18.9393   12.2622 H   0  0  0  0  0  0  0  0  0  0  0  0
   -0.4310   20.3612   12.1626 H   0  0  0  0  0  0  0  0  0  0  0  0
    2.5089   20.4476   12.9587 H   0  0  0  0  0  0  0  0  0  0  0  0
    1.7931   20.9475   11.3646 H   0  0  0  0  0  0  0  0  0  0  0  0
    1.3339   26.8705   12.3903 H   0  0  0  0  0  0  0  0  0  0  0  0
   -0.0138   27.9208   11.8340 H   0  0  0  0  0  0  0  0  0  0  0  0
   -0.3118   27.5113   14.9961 H   0  0  0  0  0  0  0  0  0  0  0  0
   -2.1845   25.7773   15.9713 H   0  0  0  0  0  0  0  0  0  0  0  0
   -2.8195   24.1328   13.9763 H   0  0  0  0  0  0  0  0  0  0  0  0
   -2.8648   27.5795   11.1534 H   0  0  0  0  0  0  0  0  0  0  0  0
   -3.5489   29.9798   11.2389 H   0  0  0  0  0  0  0  0  0  0  0  0
   -2.2149   31.7042   10.0164 H   0  0  0  0  0  0  0  0  0  0  0  0
    0.4840   28.6134    8.6045 H   0  0  0  0  0  0  0  0  0  0  0  0
    1.9047   27.8320   10.7332 H   0  0  0  0  0  0  0  0  0  0  0  0
    3.7057   29.1415    9.6093 H   0  0  0  0  0  0  0  0  0  0  0  0
    6.0100   28.3860    8.5540 H   0  0  0  0  0  0  0  0  0  0  0  0
  1  2  1  0
  2  3  1  0
  3  4  2  0
  4  5  1  0
  5  6  1  0
  6  7  1  0
  7  8  2  0
  7  9  1  0
  9 10  1  0
 10 11  1  0
 11 12  1  0
 12 13  1  0
 13 14  1  0
 14 15  1  0
  6 16  1  0
 16 17  1  0
 17 18  1  0
 18 19  2  0
 19 20  1  0
 20 21  2  0
 21 22  1  0
 16 23  1  0
 23 24  2  0
 23 25  1  0
 25 26  2  0
 26 27  1  0
 27 28  2  0
 28 29  1  0
 29 30  1  0
 30 31  2  0
 30 32  1  0
 29 33  2  0
  5 34  2  0
 34 35  1  0
 35 36  2  0
 36 37  1  0
 36  3  1  0
 15 10  1  0
 22 18  1  0
 33 25  1  0
  1 38  1  0
  1 39  1  0
  1 40  1  0
  4 41  1  0
  6 42  1  6
  9 43  1  0
 10 44  1  0
 11 45  1  0
 11 46  1  0
 12 47  1  0
 12 48  1  0
 13 49  1  0
 13 50  1  0
 14 51  1  0
 14 52  1  0
 15 53  1  0
 15 54  1  0
 17 55  1  0
 17 56  1  0
 19 57  1  0
 20 58  1  0
 21 59  1  0
 26 60  1  0
 27 61  1  0
 28 62  1  0
 33 63  1  0
 34 64  1  0
 35 65  1  0
 37 66  1  0
M  CHG  2  30   1  32  -1
M  END
>  <vina_affinity>  (1) 
-7.878

$$$$
dec_C32594714
     RDKit          3D

 44 48  0  0  0  0  0  0  0  0999 V2000
    2.2300   33.1310    7.8360 O   0  0  0  0  0  0  0  0  0  0  0  0
    1.0950   32.5950    7.6570 C   0  0  0  0  0  0  0  0  0  0  0  0
   -0.0340   32.9430    8.1120 O   0  0  0  0  0  0  0  0  0  0  0  0
    1.0990   31.3810    6.7050 C   0  0  0  0  0  0  0  0  0  0  0  0
    0.7860   30.1480    7.3800 O   0  0  0  0  0  0  0  0  0  0  0  0
    1.8010   29.4580    7.9920 C   0  0  0  0  0  0  0  0  0  0  0  0
    3.1550   29.6010    7.6790 C   0  0  0  0  0  0  0  0  0  0  0  0
    4.1220   28.8570    8.3550 C   0  0  0  0  0  0  0  0  0  0  0  0
    3.7440   27.9660    9.3530 C   0  0  0  0  0  0  0  0  0  0  0  0
    2.3950   27.8180    9.6780 C   0  0  0  0  0  0  0  0  0  0  0  0
    1.4010   28.5480    9.0010 C   0  0  0  0  0  0  0  0  0  0  0  0
   -0.0860   28.4510    9.3770 C   0  0  1  0  0  0  0  0  0  0  0  0
   -0.3850   27.4310   10.4360 C   0  0  0  0  0  0  0  0  0  0  0  0
   -0.6190   25.7290   10.0860 S   0  0  0  0  0  0  0  0  0  0  0  0
   -0.9070   25.3780   11.7940 C   0  0  0  0  0  0  0  0  0  0  0  0
   -1.1450   24.2760   12.2570 O   0  0  0  0  0  0  0  0  0  0  0  0
   -0.8160   26.5600   12.4830 N   0  0  0  0  0  0  0  0  0  0  0  0
   -0.5420   27.6670   11.7400 C   0  0  0  0  0  0  0  0  0  0  0  0
   -0.3820   29.1680   12.5120 S   0  0  0  0  0  0  0  0  0  0  0  0
   -0.7820   30.3270   11.1570 C   0  0  2  0  0  0  0  0  0  0  0  0
   -2.2720   30.7540   11.2580 C   0  0  1  0  0  0  0  0  0  0  0  0
   -2.4690   32.0520   10.4500 C   0  0  0  0  0  0  0  0  0  0  0  0
   -2.3840   31.5680    8.9960 C   0  0  0  0  0  0  0  0  0  0  0  0
   -2.1160   30.0570    9.1520 C   0  0  2  0  0  0  0  0  0  0  0  0
   -2.9840   29.7370   10.3640 C   0  0  0  0  0  0  0  0  0  0  0  0
   -0.6550   29.8670    9.6760 C   0  0  2  0  0  0  0  0  0  0  0  0
    0.3522   31.5499    5.9152 H   0  0  0  0  0  0  0  0  0  0  0  0
    2.1132   31.2859    6.2900 H   0  0  0  0  0  0  0  0  0  0  0  0
    3.4612   30.3065    6.8926 H   0  0  0  0  0  0  0  0  0  0  0  0
    5.1850   28.9754    8.0981 H   0  0  0  0  0  0  0  0  0  0  0  0
    4.5068   27.3788    9.8854 H   0  0  0  0  0  0  0  0  0  0  0  0
    2.1042   27.1194   10.4763 H   0  0  0  0  0  0  0  0  0  0  0  0
   -0.6246   28.0576    8.5023 H   0  0  0  0  0  0  0  0  0  0  0  0
   -0.9410   26.5970   13.4820 H   0  0  0  0  0  0  0  0  0  0  0  0
   -0.0113   31.0933   11.3270 H   0  0  0  0  0  0  0  0  0  0  0  0
   -2.5985   30.8411   12.3048 H   0  0  0  0  0  0  0  0  0  0  0  0
   -3.4498   32.5037   10.6599 H   0  0  0  0  0  0  0  0  0  0  0  0
   -1.7305   32.8304   10.6923 H   0  0  0  0  0  0  0  0  0  0  0  0
   -3.3286   31.7495    8.4624 H   0  0  0  0  0  0  0  0  0  0  0  0
   -1.6126   32.0881    8.4090 H   0  0  0  0  0  0  0  0  0  0  0  0
   -2.2869   29.4778    8.2326 H   0  0  0  0  0  0  0  0  0  0  0  0
   -4.0491   29.9641   10.2089 H   0  0  0  0  0  0  0  0  0  0  0  0
   -3.0482   28.6927   10.7036 H   0  0  0  0  0  0  0  0  0  0  0  0
    0.1223   30.4571    9.1685 H   0  0  0  0  0  0  0  0  0  0  0  0
  1  2  2  0
  2  3  1  0
  2  4  1  0
  4  5  1  0
  5  6  1  0
  6  7  2  0
  7  8  1  0
  8  9  2  0
  9 10  1  0
 10 11  2  0
 11 12  1  0
 12 13  1  0
 13 14  1  0
 14 15  1  0
 15 16  2  0
 15 17  1  0
 17 18  1  0
 18 19  1  0
 19 20  1  0
 20 21  1  0
 21 22  1  0
 22 23  1  0
 23 24  1  0
 24 25  1  0
 24 26  1  0
 11  6  1  0
 26 12  1  0
 18 13  2  0
 26 20  1  0
 25 21  1  0
  4 27  1  0
  4 28  1  0
  7 29  1  0
  8 30  1  0
  9 31  1  0
 10 32  1  0
 12 33  1  6
 17 34  1  0
 20 35  1  6
 21 36  1  1
 22 37  1  0
 22 38  1  0
 23 39  1  0
 23 40  1  0
 24 41  1  6
 25 42  1  0
 25 43  1  0
 26 44  1  6
M  CHG  1   3  -1
M  END
>  <vina_affinity>  (1) 
-7.212

$$$$
dec_C21661773
     RDKit          3D

 38 40  0  0  0  0  0  0  0  0999 V2000
    0.0160   23.3390   11.6640 N   0  0  0  0  0  0  0  0  0  0  0  0
   -0.4740   24.5260   12.1750 C   0  0  0  0  0  0  0  0  0  0  0  0
   -0.1710   24.8190   13.4290 N   0  0  0  0  0  0  0  0  0  0  0  0
   -0.6520   25.9720   13.8650 C   0  0  0  0  0  0  0  0  0  0  0  0
   -0.3950   26.3180   15.1770 N   0  0  0  0  0  0  0  0  0  0  0  0
   -1.3930   26.8050   13.1560 N   0  0  0  0  0  0  0  0  0  0  0  0
   -1.6250   26.4320   11.8940 C   0  0  0  0  0  0  0  0  0  0  0  0
   -2.4840   27.3240   11.0230 C   0  0  0  0  0  0  0  0  0  0  0  0
   -1.7170   28.3620   10.3320 N   0  0  0  0  0  0  0  0  0  0  0  0
   -0.4060   28.0590   10.0380 N   0  0  0  0  0  0  0  0  0  0  0  0
    0.3270   28.9820    9.5010 C   0  0  0  0  0  0  0  0  0  0  0  0
    1.7470   28.6800    9.1650 C   0  0  0  0  0  0  0  0  0  0  0  0
    2.4080   27.5600    9.6830 C   0  0  0  0  0  0  0  0  0  0  0  0
    3.7420   27.3170    9.3440 C   0  0  0  0  0  0  0  0  0  0  0  0
    4.4200   28.1930    8.4980 C   0  0  0  0  0  0  0  0  0  0  0  0
    3.7710   29.3190    7.9930 C   0  0  0  0  0  0  0  0  0  0  0  0
    2.4390   29.5660    8.3290 C   0  0  0  0  0  0  0  0  0  0  0  0
   -0.1530   30.3510    9.2260 C   0  0  0  0  0  0  0  0  0  0  0  0
   -1.4290   30.6290    9.5190 C   0  0  0  0  0  0  0  0  0  0  0  0
   -2.0680   31.9500    9.3280 C   0  0  0  0  0  0  0  0  0  0  0  0
   -1.1540   32.8850    8.9350 F   0  0  0  0  0  0  0  0  0  0  0  0
   -2.6290   32.4420   10.4610 F   0  0  0  0  0  0  0  0  0  0  0  0
   -3.0190   31.9440    8.3610 F   0  0  0  0  0  0  0  0  0  0  0  0
   -2.3090   29.5960   10.0930 C   0  0  0  0  0  0  0  0  0  0  0  0
   -3.4880   29.8440   10.3270 O   0  0  0  0  0  0  0  0  0  0  0  0
   -1.1830   25.2890   11.3600 N   0  0  0  0  0  0  0  0  0  0  0  0
    0.3750   23.4850   10.7300 H   0  0  0  0  0  0  0  0  0  0  0  0
    0.6330   22.9020   12.3340 H   0  0  0  0  0  0  0  0  0  0  0  0
   -1.0650   25.8710   15.7880 H   0  0  0  0  0  0  0  0  0  0  0  0
   -0.3080   27.3230   15.2510 H   0  0  0  0  0  0  0  0  0  0  0  0
   -2.9858   26.6993   10.2694 H   0  0  0  0  0  0  0  0  0  0  0  0
   -3.2036   27.8317   11.6821 H   0  0  0  0  0  0  0  0  0  0  0  0
    1.8775   26.8711   10.3568 H   0  0  0  0  0  0  0  0  0  0  0  0
    4.2579   26.4325    9.7457 H   0  0  0  0  0  0  0  0  0  0  0  0
    5.4681   27.9958    8.2285 H   0  0  0  0  0  0  0  0  0  0  0  0
    4.3087   30.0126    7.3298 H   0  0  0  0  0  0  0  0  0  0  0  0
    1.9310   30.4591    7.9362 H   0  0  0  0  0  0  0  0  0  0  0  0
    0.5131   31.1138    8.7965 H   0  0  0  0  0  0  0  0  0  0  0  0
  1  2  1  0
  2  3  2  0
  3  4  1  0
  4  5  1  0
  4  6  2  0
  6  7  1  0
  7  8  1  0
  8  9  1  0
  9 10  1  0
 10 11  2  0
 11 12  1  0
 12 13  2  0
 13 14  1  0
 14 15  2  0
 15 16  1  0
 16 17  2  0
 11 18  1  0
 18 19  2  0
 19 20  1  0
 20 21  1  0
 20 22  1  0
 20 23  1  0
 19 24  1  0
 24 25  2  0
  7 26  2  0
 26  2  1  0
 24  9  1  0
 17 12  1  0
  1 27  1  0
  1 28  1  0
  5 29  1  0
  5 30  1  0
  8 31  1  0
  8 32  1  0
 13 33  1  0
 14 34  1  0
 15 35  1  0
 16 36  1  0
 17 37  1  0
 18 38  1  0
M  END
>  <vina_affinity>  (1) 
-8.443

$$$$
dec_C09222414
     RDKit          3D

 54 57  0  0  0  0  0  0  0  0999 V2000
   -0.4940   23.2520   15.4710 C   0  0  0  0  0  0  0  0  0  0  0  0
   -0.4060   24.2810   14.3470 C   0  0  2  0  0  0  0  0  0  0  0  0
   -0.4240   25.7120   14.9130 C   0  0  0  0  0  0  0  0  0  0  0  0
   -1.0470   26.7440   13.9680 C   0  0  0  0  0  0  0  0  0  0  0  0
   -0.8290   26.4060   12.4950 C   0  0  2  0  0  0  0  0  0  0  0  0
   -1.3610   25.0140   12.1150 C   0  0  0  0  0  0  0  0  0  0  0  0
   -1.5190   24.0760   13.3180 C   0  0  0  0  0  0  0  0  0  0  0  0
    0.5700   26.5580   12.1210 N   0  0  0  0  0  0  0  0  0  0  0  0
    0.7350   27.4260   11.0550 C   0  0  0  0  0  0  0  0  0  0  0  0
    1.7960   27.5940   10.4770 O   0  0  0  0  0  0  0  0  0  0  0  0
   -0.4770   28.0130   10.8130 N   0  0  0  0  0  0  0  0  0  0  0  0
   -0.7360   28.8270    9.7180 N   0  0  0  0  0  0  0  0  0  0  0  0
   -0.5750   30.1880    9.9140 C   0  0  0  0  0  0  0  0  0  0  0  0
   -0.4580   30.7140   11.0190 O   0  0  0  0  0  0  0  0  0  0  0  0
   -0.5340   30.9930    8.6160 C   0  0  0  0  0  0  0  0  0  0  0  0
    0.2280   30.3520    7.5900 O   0  0  0  0  0  0  0  0  0  0  0  0
    1.4570   30.8770    7.3760 C   0  0  0  0  0  0  0  0  0  0  0  0
    1.6850   32.0540    7.1270 O   0  0  0  0  0  0  0  0  0  0  0  0
    2.5300   29.8670    7.4700 C   0  0  0  0  0  0  0  0  0  0  0  0
    2.9990   29.1750    6.4200 C   0  0  0  0  0  0  0  0  0  0  0  0
    4.0390   28.1890    6.4970 C   0  0  0  0  0  0  0  0  0  0  0  0
    4.8770   27.8340    7.9580 S   0  0  0  0  0  0  0  0  0  0  0  0
    5.8800   26.6500    7.2320 C   0  0  0  0  0  0  0  0  0  0  0  0
    6.8790   25.8850    7.8690 C   0  0  0  0  0  0  0  0  0  0  0  0
    7.6070   24.9600    7.1190 C   0  0  0  0  0  0  0  0  0  0  0  0
    7.3520   24.7950    5.7660 C   0  0  0  0  0  0  0  0  0  0  0  0
    6.3620   25.5560    5.1400 C   0  0  0  0  0  0  0  0  0  0  0  0
    5.6010   26.5070    5.8730 C   0  0  0  0  0  0  0  0  0  0  0  0
    4.5450   27.4000    5.4710 C   0  0  0  0  0  0  0  0  0  0  0  0
    3.9830   27.4420    3.8390 Cl  0  0  0  0  0  0  0  0  0  0  0  0
   -1.4740   27.4800   11.5930 C   0  0  0  0  0  0  0  0  0  0  0  0
   -2.6620   27.7790   11.5700 O   0  0  0  0  0  0  0  0  0  0  0  0
   -0.4501   23.7657   16.4427 H   0  0  0  0  0  0  0  0  0  0  0  0
   -1.4426   22.7009   15.3902 H   0  0  0  0  0  0  0  0  0  0  0  0
    0.3472   22.5478   15.3902 H   0  0  0  0  0  0  0  0  0  0  0  0
    0.5528   24.1346   13.8280 H   0  0  0  0  0  0  0  0  0  0  0  0
   -1.0008   25.7070   15.8496 H   0  0  0  0  0  0  0  0  0  0  0  0
    0.6242   26.0091   15.0649 H   0  0  0  0  0  0  0  0  0  0  0  0
   -2.1289   26.7896   14.1616 H   0  0  0  0  0  0  0  0  0  0  0  0
   -0.5563   27.7091   14.1622 H   0  0  0  0  0  0  0  0  0  0  0  0
   -2.3433   25.1347   11.6350 H   0  0  0  0  0  0  0  0  0  0  0  0
   -0.6232   24.5563   11.4396 H   0  0  0  0  0  0  0  0  0  0  0  0
   -2.4888   24.2729   13.7983 H   0  0  0  0  0  0  0  0  0  0  0  0
   -1.4618   23.0396   12.9538 H   0  0  0  0  0  0  0  0  0  0  0  0
    1.3230   25.9320   12.3790 H   0  0  0  0  0  0  0  0  0  0  0  0
   -0.4270   28.4450    8.8200 H   0  0  0  0  0  0  0  0  0  0  0  0
   -1.5640   31.1303    8.2550 H   0  0  0  0  0  0  0  0  0  0  0  0
   -0.0477   31.9544    8.8379 H   0  0  0  0  0  0  0  0  0  0  0  0
    2.9708   29.6702    8.4584 H   0  0  0  0  0  0  0  0  0  0  0  0
    2.5563   29.3773    5.4336 H   0  0  0  0  0  0  0  0  0  0  0  0
    7.0817   26.0155    8.9423 H   0  0  0  0  0  0  0  0  0  0  0  0
    8.3887   24.3575    7.6047 H   0  0  0  0  0  0  0  0  0  0  0  0
    7.9310   24.0628    5.1841 H   0  0  0  0  0  0  0  0  0  0  0  0
    6.1687   25.4176    4.0660 H   0  0  0  0  0  0  0  0  0  0  0  0
  1  2  1  0
  2  3  1  0
  3  4  1  0
  4  5  1  0
  5  6  1  0
  6  7  1  0
  5  8  1  1
  8  9  1  0
  9 10  2  0
  9 11  1  0
 11 12  1  0
 12 13  1  0
 13 14  2  0
 13 15  1  0
 15 16  1  0
 16 17  1  0
 17 18  2  0
 17 19  1  0
 19 20  2  0
 20 21  1  0
 21 22  1  0
 22 23  1  0
 23 24  2  0
 24 25  1  0
 25 26  2  0
 26 27  1  0
 27 28  2  0
 28 29  1  0
 29 30  1  0
 11 31  1  0
 31 32  2  0
  7  2  1  0
 29 21  2  0
 31  5  1  0
 28 23  1  0
  1 33  1  0
  1 34  1  0
  1 35  1  0
  2 36  1  6
  3 37  1  0
  3 38  1  0
  4 39  1  0
  4 40  1  0
  6 41  1  0
  6 42  1  0
  7 43  1  0
  7 44  1  0
  8 45  1  0
 12 46  1  0
 15 47  1  0
 15 48  1  0
 19 49  1  0
 20 50  1  0
 24 51  1  0
 25 52  1  0
 26 53  1  0
 27 54  1  0
M  END
>  <vina_affinity>  (1) 
-9.133

$$$$
dec_C36483616
     RDKit          3D

 67 69  0  0  0  0  0  0  0  0999 V2000
   -1.1000   28.5860   13.0690 C   0  0  0  0  0  0  0  0  0  0  0  0
   -1.1330   27.0380   13.0410 C   0  0  0  0  0  0  0  0  0  0  0  0
   -0.7700   26.5570   14.4590 C   0  0  0  0  0  0  0  0  0  0  0  0
   -2.5670   26.6110   12.7120 C   0  0  0  0  0  0  0  0  0  0  0  0
   -0.0800   26.5830   11.9830 C   0  0  0  0  0  0  0  0  0  0  0  0
   -0.3660   25.5110   10.8840 C   0  0  0  0  0  0  0  0  0  0  0  0
   -1.4540   25.9060    9.8770 C   0  0  0  0  0  0  0  0  0  0  0  0
    0.9150   25.1810   10.0860 C   0  0  0  0  0  0  0  0  0  0  0  0
   -0.7470   24.2400   11.5550 N   0  0  0  0  0  0  0  0  0  0  0  0
    0.0840   23.5000   12.3920 C   0  0  0  0  0  0  0  0  0  0  0  0
    1.2030   23.8880   12.7270 O   0  0  0  0  0  0  0  0  0  0  0  0
   -0.5590   22.1910   12.9280 C   0  0  1  0  0  0  0  0  0  0  0  0
   -0.5510   20.9700   11.9980 C   0  0  0  0  0  0  0  0  0  0  0  0
    0.3630   20.7810   10.9500 C   0  0  0  0  0  0  0  0  0  0  0  0
    1.3030   21.7340   10.6900 O   0  0  0  0  0  0  0  0  0  0  0  0
    0.3400   19.6330   10.1550 C   0  0  0  0  0  0  0  0  0  0  0  0
   -0.6050   18.6470   10.4020 C   0  0  0  0  0  0  0  0  0  0  0  0
   -0.5910   17.5440    9.6000 O   0  0  0  0  0  0  0  0  0  0  0  0
   -1.5290   18.7890   11.4280 C   0  0  0  0  0  0  0  0  0  0  0  0
   -1.4930   19.9430   12.2140 C   0  0  0  0  0  0  0  0  0  0  0  0
   -2.4000   20.0890   13.2280 O   0  0  0  0  0  0  0  0  0  0  0  0
   -0.1260   21.9170   14.3230 N   0  0  0  0  0  0  0  0  0  0  0  0
   -0.7190   22.7030   15.3340 C   0  0  0  0  0  0  0  0  0  0  0  0
   -0.0210   23.3420   16.1270 O   0  0  0  0  0  0  0  0  0  0  0  0
   -2.1700   22.7310   15.4770 C   0  0  0  0  0  0  0  0  0  0  0  0
   -3.0530   23.7890   15.3360 C   0  0  0  0  0  0  0  0  0  0  0  0
   -4.3460   23.2970   15.6370 C   0  0  0  0  0  0  0  0  0  0  0  0
   -4.1780   21.9740   15.9660 C   0  0  0  0  0  0  0  0  0  0  0  0
   -2.8700   21.6250   15.8840 O   0  0  0  0  0  0  0  0  0  0  0  0
    0.7650   20.8320   14.5800 C   0  0  0  0  0  0  0  0  0  0  0  0
    2.0790   20.8710   14.0860 C   0  0  0  0  0  0  0  0  0  0  0  0
    2.9790   19.8400   14.3670 C   0  0  0  0  0  0  0  0  0  0  0  0
    2.5760   18.7620   15.1520 C   0  0  0  0  0  0  0  0  0  0  0  0
    1.2740   18.7180   15.6440 C   0  0  0  0  0  0  0  0  0  0  0  0
    0.7780   17.3900   16.6210 Cl  0  0  0  0  0  0  0  0  0  0  0  0
    0.3710   19.7420   15.3600 C   0  0  0  0  0  0  0  0  0  0  0  0
   -1.0926   28.9338   14.1126 H   0  0  0  0  0  0  0  0  0  0  0  0
   -0.1940   28.9428   12.5572 H   0  0  0  0  0  0  0  0  0  0  0  0
   -1.9899   28.9810   12.5572 H   0  0  0  0  0  0  0  0  0  0  0  0
   -1.2586   27.2044   15.2021 H   0  0  0  0  0  0  0  0  0  0  0  0
   -1.1130   25.5206   14.5936 H   0  0  0  0  0  0  0  0  0  0  0  0
    0.3208   26.6026   14.5936 H   0  0  0  0  0  0  0  0  0  0  0  0
   -3.1237   26.4452   13.6462 H   0  0  0  0  0  0  0  0  0  0  0  0
   -3.0598   27.4014   12.1268 H   0  0  0  0  0  0  0  0  0  0  0  0
   -2.5472   25.6798   12.1268 H   0  0  0  0  0  0  0  0  0  0  0  0
    0.2160   27.4945   11.4431 H   0  0  0  0  0  0  0  0  0  0  0  0
    0.6434   26.0501   12.6176 H   0  0  0  0  0  0  0  0  0  0  0  0
   -2.3539   26.2327   10.4188 H   0  0  0  0  0  0  0  0  0  0  0  0
   -1.0876   26.7285    9.2451 H   0  0  0  0  0  0  0  0  0  0  0  0
   -1.7006   25.0400    9.2451 H   0  0  0  0  0  0  0  0  0  0  0  0
    1.7378   24.9690   10.7846 H   0  0  0  0  0  0  0  0  0  0  0  0
    0.7356   24.2997    9.4526 H   0  0  0  0  0  0  0  0  0  0  0  0
    1.1837   26.0392    9.4526 H   0  0  0  0  0  0  0  0  0  0  0  0
   -1.5060   23.7190   11.1340 H   0  0  0  0  0  0  0  0  0  0  0  0
   -1.6388   22.3999   12.9466 H   0  0  0  0  0  0  0  0  0  0  0  0
    1.1250   22.1430    9.8240 H   0  0  0  0  0  0  0  0  0  0  0  0
    1.0664   19.5110    9.3380 H   0  0  0  0  0  0  0  0  0  0  0  0
    0.1920   17.5760    9.0270 H   0  0  0  0  0  0  0  0  0  0  0  0
   -2.2773   18.0056   11.6189 H   0  0  0  0  0  0  0  0  0  0  0  0
   -2.2980   19.3690   13.8720 H   0  0  0  0  0  0  0  0  0  0  0  0
   -2.7975   24.8185   15.0447 H   0  0  0  0  0  0  0  0  0  0  0  0
   -5.2913   23.8590   15.6124 H   0  0  0  0  0  0  0  0  0  0  0  0
   -4.9913   21.2923   16.2557 H   0  0  0  0  0  0  0  0  0  0  0  0
    2.4034   21.7232   13.4707 H   0  0  0  0  0  0  0  0  0  0  0  0
    4.0038   19.8794   13.9692 H   0  0  0  0  0  0  0  0  0  0  0  0
    3.2820   17.9504   15.3818 H   0  0  0  0  0  0  0  0  0  0  0  0
   -0.6556   19.6913   15.7517 H   0  0  0  0  0  0  0  0  0  0  0  0
  1  2  1  0
  2  3  1  0
  2  4  1  0
  2  5  1  0
  5  6  1  0
  6  7  1  0
  6  8  1  0
  6  9  1  0
  9 10  1  0
 10 11  2  0
 10 12  1  0
 12 13  1  0
 13 14  2  0
 14 15  1  0
 14 16  1  0
 16 17  2  0
 17 18  1  0
 17 19  1  0
 19 20  2  0
 20 21  1  0
 12 22  1  0
 22 23  1  0
 23 24  2  0
 23 25  1  0
 25 26  2  0
 26 27  1  0
 27 28  2  0
 28 29  1  0
 22 30  1  0
 30 31  2  0
 31 32  1  0
 32 33  2  0
 33 34  1  0
 34 35  1  0
 34 36  2  0
 20 13  1  0
 29 25  1  0
 36 30  1  0
  1 37  1  0
  1 38  1  0
  1 39  1  0
  3 40  1  0
  3 41  1  0
  3 42  1  0
  4 43  1  0
  4 44  1  0
  4 45  1  0
  5 46  1  0
  5 47  1  0
  7 48  1  0
  7 49  1  0
  7 50  1  0
  8 51  1  0
  8 52  1  0
  8 53  1  0
  9 54  1  0
 12 55  1  1
 15 56  1  0
 16 57  1  0
 18 58  1  0
 19 59  1  0
 21 60  1  0
 26 61  1  0
 27 62  1  0
 28 63  1  0
 31 64  1  0
 32 65  1  0
 33 66  1  0
 36 67  1  0
M  END
>  <vina_affinity>  (1) 
-6.267

$$$$
dec_C34785694
     RDKit          3D

 63 66  0  0  0  0  0  0  0  0999 V2000
   -1.4770   33.0520   10.0860 C   0  0  0  0  0  0  0  0  0  0  0  0
   -2.5100   31.9430   10.0490 C   0  0  0  0  0  0  0  0  0  0  0  0
   -2.0490   30.8500    9.2440 O   0  0  0  0  0  0  0  0  0  0  0  0
   -1.8870   29.6580    9.8960 C   0  0  0  0  0  0  0  0  0  0  0  0
   -2.7970   29.0410   10.4380 O   0  0  0  0  0  0  0  0  0  0  0  0
   -0.5390   29.1140    9.7560 C   0  0  0  0  0  0  0  0  0  0  0  0
    0.0240   28.0580   10.4630 C   0  0  0  0  0  0  0  0  0  0  0  0
   -0.4570   27.1210   11.3560 N   0  0  0  0  0  0  0  0  0  0  0  0
   -0.7680   27.4490   12.6560 C   0  0  0  0  0  0  0  0  0  0  0  0
   -0.7700   28.5950   13.1020 O   0  0  0  0  0  0  0  0  0  0  0  0
   -1.1290   26.3620   13.4400 N   0  0  0  0  0  0  0  0  0  0  0  0
   -0.9190   24.9560   13.0730 C   0  0  0  0  0  0  0  0  0  0  0  0
   -0.7110   24.0540   14.3040 C   0  0  0  0  0  0  0  0  0  0  0  0
   -1.7660   24.1380   15.3390 N   0  0  0  0  0  0  0  0  0  0  0  0
   -2.7650   23.0530   15.2250 C   0  0  0  0  0  0  0  0  0  0  0  0
   -2.3870   21.8300   16.0770 C   0  0  0  0  0  0  0  0  0  0  0  0
   -2.6750   21.8180   17.2780 O   0  0  0  0  0  0  0  0  0  0  0  0
   -1.7010   20.7750   15.4650 N   0  0  0  0  0  0  0  0  0  0  0  0
   -1.5160   19.5670   16.2690 C   0  0  0  0  0  0  0  0  0  0  0  0
   -0.3240   18.7360   15.8100 C   0  0  0  0  0  0  0  0  0  0  0  0
   -0.3940   18.4460   14.3160 C   0  0  0  0  0  0  0  0  0  0  0  0
   -0.5100   19.7500   13.5380 C   0  0  0  0  0  0  0  0  0  0  0  0
   -1.6970   20.5840   14.0130 C   0  0  0  0  0  0  0  0  0  0  0  0
   -2.4480   25.4510   15.3290 C   0  0  0  0  0  0  0  0  0  0  0  0
   -1.5750   26.6070   14.8120 C   0  0  0  0  0  0  0  0  0  0  0  0
    1.7120   27.8570   10.1800 S   0  0  0  0  0  0  0  0  0  0  0  0
    1.6690   29.0430    9.0080 C   0  0  0  0  0  0  0  0  0  0  0  0
    0.4450   29.6300    8.8600 C   0  0  0  0  0  0  0  0  0  0  0  0
    0.4900   30.7050    7.8340 C   0  0  0  0  0  0  0  0  0  0  0  0
    1.8570   30.4340    7.1310 C   0  0  0  0  0  0  0  0  0  0  0  0
    2.7200   29.5980    8.1250 C   0  0  0  0  0  0  0  0  0  0  0  0
   -1.2444   33.3017   11.1317 H   0  0  0  0  0  0  0  0  0  0  0  0
   -0.5613   32.7173    9.5766 H   0  0  0  0  0  0  0  0  0  0  0  0
   -1.8757   33.9416    9.5766 H   0  0  0  0  0  0  0  0  0  0  0  0
   -2.6933   31.5855   11.0730 H   0  0  0  0  0  0  0  0  0  0  0  0
   -3.4387   32.3382    9.6117 H   0  0  0  0  0  0  0  0  0  0  0  0
   -1.0220   26.3930   10.9460 H   0  0  0  0  0  0  0  0  0  0  0  0
   -1.7999   24.6000   12.5187 H   0  0  0  0  0  0  0  0  0  0  0  0
   -0.0080   24.9016   12.4588 H   0  0  0  0  0  0  0  0  0  0  0  0
   -0.6593   23.0118   13.9560 H   0  0  0  0  0  0  0  0  0  0  0  0
    0.2135   24.4063   14.7848 H   0  0  0  0  0  0  0  0  0  0  0  0
   -3.7412   23.4323   15.5616 H   0  0  0  0  0  0  0  0  0  0  0  0
   -2.8029   22.7353   14.1726 H   0  0  0  0  0  0  0  0  0  0  0  0
   -1.3577   19.8618   17.3169 H   0  0  0  0  0  0  0  0  0  0  0  0
   -2.4182   18.9483   16.1542 H   0  0  0  0  0  0  0  0  0  0  0  0
    0.6023   19.2890   16.0247 H   0  0  0  0  0  0  0  0  0  0  0  0
   -0.3396   17.7782   16.3508 H   0  0  0  0  0  0  0  0  0  0  0  0
    0.5181   17.9157   14.0046 H   0  0  0  0  0  0  0  0  0  0  0  0
   -1.2764   17.8224   14.1098 H   0  0  0  0  0  0  0  0  0  0  0  0
    0.4133   20.3317   13.6766 H   0  0  0  0  0  0  0  0  0  0  0  0
   -0.6643   19.5050   12.4768 H   0  0  0  0  0  0  0  0  0  0  0  0
   -1.6526   21.5700   13.5273 H   0  0  0  0  0  0  0  0  0  0  0  0
   -2.6159   20.0425   13.7439 H   0  0  0  0  0  0  0  0  0  0  0  0
   -3.3365   25.3741   14.6850 H   0  0  0  0  0  0  0  0  0  0  0  0
   -2.7001   25.6859   16.3736 H   0  0  0  0  0  0  0  0  0  0  0  0
   -2.1605   27.5379   14.8379 H   0  0  0  0  0  0  0  0  0  0  0  0
   -0.6876   26.6882   15.4570 H   0  0  0  0  0  0  0  0  0  0  0  0
   -0.3471   30.6157    7.1260 H   0  0  0  0  0  0  0  0  0  0  0  0
    0.4024   31.7184    8.2526 H   0  0  0  0  0  0  0  0  0  0  0  0
    1.6984   29.8693    6.2004 H   0  0  0  0  0  0  0  0  0  0  0  0
    2.3595   31.3772    6.8705 H   0  0  0  0  0  0  0  0  0  0  0  0
    3.2758   28.8020    7.6078 H   0  0  0  0  0  0  0  0  0  0  0  0
    3.4968   30.1743    8.6490 H   0  0  0  0  0  0  0  0  0  0  0  0
  1  2  1  0
  2  3  1  0
  3  4  1  0
  4  5  2  0
  4  6  1  0
  6  7  2  0
  7  8  1  0
  8  9  1  0
  9 10  2  0
  9 11  1  0
 11 12  1  0
 12 13  1  0
 13 14  1  0
 14 15  1  0
 15 16  1  0
 16 17  2  0
 16 18  1  0
 18 19  1  0
 19 20  1  0
 20 21  1  0
 21 22  1  0
 22 23  1  0
 14 24  1  0
 24 25  1  0
  7 26  1  0
 26 27  1  0
 27 28  2  0
 28 29  1  0
 29 30  1  0
 30 31  1  0
 28  6  1  0
 25 11  1  0
 31 27  1  0
 23 18  1  0
  1 32  1  0
  1 33  1  0
  1 34  1  0
  2 35  1  0
  2 36  1  0
  8 37  1  0
 12 38  1  0
 12 39  1  0
 13 40  1  0
 13 41  1  0
 15 42  1  0
 15 43  1  0
 19 44  1  0
 19 45  1  0
 20 46  1  0
 20 47  1  0
 21 48  1  0
 21 49  1  0
 22 50  1  0
 22 51  1  0
 23 52  1  0
 23 53  1  0
 24 54  1  0
 24 55  1  0
 25 56  1  0
 25 57  1  0
 29 58  1  0
 29 59  1  0
 30 60  1  0
 30 61  1  0
 31 62  1  0
 31 63  1  0
M  END
>  <vina_affinity>  (1) 
-8.858

$$$$
dec_C00876875
     RDKit          3D

 55 58  0  0  0  0  0  0  0  0999 V2000
    1.7990   23.2070   10.6360 C   0  0  0  0  0  0  0  0  0  0  0  0
    0.4690   22.8540   11.2810 C   0  0  0  0  0  0  0  0  0  0  0  0
   -0.4090   23.9850   11.2930 O   0  0  0  0  0  0  0  0  0  0  0  0
   -0.7050   24.5950   12.4820 C   0  0  0  0  0  0  0  0  0  0  0  0
   -1.5210   24.0680   13.4850 C   0  0  0  0  0  0  0  0  0  0  0  0
   -1.7700   24.8040   14.6500 C   0  0  0  0  0  0  0  0  0  0  0  0
   -1.2140   26.0710   14.8260 C   0  0  0  0  0  0  0  0  0  0  0  0
   -0.3950   26.6130   13.8390 C   0  0  0  0  0  0  0  0  0  0  0  0
   -0.1370   25.8670   12.6860 C   0  0  0  0  0  0  0  0  0  0  0  0
    0.7180   26.4630   11.6560 N   0  0  0  0  0  0  0  0  0  0  0  0
    0.3500   27.4300   10.8950 C   0  0  0  0  0  0  0  0  0  0  0  0
   -0.9650   27.8140   11.0310 O   0  0  0  0  0  0  0  0  0  0  0  0
   -1.4290   28.9430   10.3380 C   0  0  0  0  0  0  0  0  0  0  0  0
   -2.7450   29.3340   10.5690 C   0  0  0  0  0  0  0  0  0  0  0  0
   -3.2320   30.4550    9.9100 C   0  0  0  0  0  0  0  0  0  0  0  0
   -4.5200   30.8180   10.1560 O   0  0  0  0  0  0  0  0  0  0  0  0
   -2.4250   31.1770    9.0330 C   0  0  0  0  0  0  0  0  0  0  0  0
   -1.1040   30.7690    8.8100 C   0  0  0  0  0  0  0  0  0  0  0  0
   -0.5980   29.6430    9.4670 C   0  0  0  0  0  0  0  0  0  0  0  0
    0.7690   29.1790    9.2580 C   0  0  0  0  0  0  0  0  0  0  0  0
    1.2300   28.0990    9.9100 C   0  0  0  0  0  0  0  0  0  0  0  0
    2.6230   27.5830    9.7300 C   0  0  0  0  0  0  0  0  0  0  0  0
    2.9810   26.6340   10.4310 O   0  0  0  0  0  0  0  0  0  0  0  0
    3.3940   28.1400    8.7520 N   0  0  0  0  0  0  0  0  0  0  0  0
    4.6780   27.5600    8.3700 C   0  0  0  0  0  0  0  0  0  0  0  0
    4.4980   26.4650    7.3060 C   0  0  2  0  0  0  0  0  0  0  0  0
    4.7940   25.0710    7.8360 C   0  0  0  0  0  0  0  0  0  0  0  0
    6.2450   24.8750    7.4750 C   0  0  0  0  0  0  0  0  0  0  0  0
    6.3380   25.5990    6.1510 C   0  0  0  0  0  0  0  0  0  0  0  0
    5.4390   26.7150    6.2370 O   0  0  0  0  0  0  0  0  0  0  0  0
    2.5453   23.4051   11.4194 H   0  0  0  0  0  0  0  0  0  0  0  0
    2.1376   22.3676   10.0109 H   0  0  0  0  0  0  0  0  0  0  0  0
    1.6768   24.1038   10.0109 H   0  0  0  0  0  0  0  0  0  0  0  0
   -0.0019   22.0385   10.7124 H   0  0  0  0  0  0  0  0  0  0  0  0
    0.6538   22.5414   12.3193 H   0  0  0  0  0  0  0  0  0  0  0  0
   -1.9697   23.0715   13.3596 H   0  0  0  0  0  0  0  0  0  0  0  0
   -2.4115   24.3780   15.4355 H   0  0  0  0  0  0  0  0  0  0  0  0
   -1.4222   26.6413   15.7433 H   0  0  0  0  0  0  0  0  0  0  0  0
    0.0427   27.6143   13.9651 H   0  0  0  0  0  0  0  0  0  0  0  0
    1.6900   26.1300   11.6100 H   0  0  0  0  0  0  0  0  0  0  0  0
   -3.3860   28.7664   11.2596 H   0  0  0  0  0  0  0  0  0  0  0  0
   -4.6580   30.8970   11.1160 H   0  0  0  0  0  0  0  0  0  0  0  0
   -2.8238   32.0635    8.5181 H   0  0  0  0  0  0  0  0  0  0  0  0
   -0.4637   31.3349    8.1173 H   0  0  0  0  0  0  0  0  0  0  0  0
    1.4275   29.7179    8.5609 H   0  0  0  0  0  0  0  0  0  0  0  0
    2.9600   28.6890    8.0190 H   0  0  0  0  0  0  0  0  0  0  0  0
    5.3233   28.3528    7.9636 H   0  0  0  0  0  0  0  0  0  0  0  0
    5.1354   27.1074    9.2622 H   0  0  0  0  0  0  0  0  0  0  0  0
    3.4488   26.4995    6.9775 H   0  0  0  0  0  0  0  0  0  0  0  0
    4.6469   25.0221    8.9250 H   0  0  0  0  0  0  0  0  0  0  0  0
    4.1336   24.2975    7.4171 H   0  0  0  0  0  0  0  0  0  0  0  0
    6.9088   25.3280    8.2261 H   0  0  0  0  0  0  0  0  0  0  0  0
    6.5523   23.8199    7.4269 H   0  0  0  0  0  0  0  0  0  0  0  0
    7.3663   25.9507    5.9808 H   0  0  0  0  0  0  0  0  0  0  0  0
    6.0731   24.9363    5.3139 H   0  0  0  0  0  0  0  0  0  0  0  0
  1  2  1  0
  2  3  1  0
  3  4  1  0
  4  5  2  0
  5  6  1  0
  6  7  2  0
  7  8  1  0
  8  9  2  0
  9 10  1  0
 10 11  2  0
 11 12  1  0
 12 13  1  0
 13 14  2  0
 14 15  1  0
 15 16  1  0
 15 17  2  0
 17 18  1  0
 18 19  2  0
 19 20  1  0
 20 21  2  0
 21 22  1  0
 22 23  2  0
 22 24  1  0
 24 25  1  0
 25 26  1  0
 26 27  1  0
 27 28  1  0
 28 29  1  0
 29 30  1  0
  9  4  1  0
 21 11  1  0
 30 26  1  0
 19 13  1  0
  1 31  1  0
  1 32  1  0
  1 33  1  0
  2 34  1  0
  2 35  1  0
  5 36  1  0
  6 37  1  0
  7 38  1  0
  8 39  1  0
 10 40  1  0
 14 41  1  0
 16 42  1  0
 17 43  1  0
 18 44  1  0
 20 45  1  0
 24 46  1  0
 25 47  1  0
 25 48  1  0
 26 49  1  6
 27 50  1  0
 27 51  1  0
 28 52  1  0
 28 53  1  0
 29 54  1  0
 29 55  1  0
M  CHG  1  10   1
M  END
>  <vina_affinity>  (1) 
-8.514

$$$$
dec_C06669830
     RDKit          3D

 44 45  0  0  0  0  0  0  0  0999 V2000
    0.3990   19.5170   14.8310 C   0  0  0  0  0  0  0  0  0  0  0  0
   -0.3510   20.7660   14.3470 C   0  0  0  0  0  0  0  0  0  0  0  0
   -1.4950   20.3180   13.4240 C   0  0  0  0  0  0  0  0  0  0  0  0
    0.6510   21.7060   13.6210 C   0  0  0  0  0  0  0  0  0  0  0  0
    0.1170   23.1040   13.5470 C   0  0  0  0  0  0  0  0  0  0  0  0
   -0.9230   23.4900   14.3660 C   0  0  0  0  0  0  0  0  0  0  0  0
   -1.3790   25.1050   14.1160 S   0  0  0  0  0  0  0  0  0  0  0  0
   -0.1560   25.3470   12.9520 C   0  0  0  0  0  0  0  0  0  0  0  0
   -0.0150   26.5670   12.3040 N   0  0  0  0  0  0  0  0  0  0  0  0
   -0.7880   27.0290   11.2600 C   0  0  0  0  0  0  0  0  0  0  0  0
   -1.8340   26.5220   10.8680 O   0  0  0  0  0  0  0  0  0  0  0  0
   -0.2860   28.1840   10.6550 N   0  0  0  0  0  0  0  0  0  0  0  0
    1.1050   28.6610   10.7600 C   0  0  0  0  0  0  0  0  0  0  0  0
    2.1210   27.8250    9.9700 C   0  0  0  0  0  0  0  0  0  0  0  0
    2.9400   27.0530   10.8360 O   0  0  0  0  0  0  0  0  0  0  0  0
   -1.1650   28.8790    9.7110 C   0  0  0  0  0  0  0  0  0  0  0  0
   -2.0730   29.9280   10.3550 C   0  0  0  0  0  0  0  0  0  0  0  0
   -3.2690   29.3210   10.8360 O   0  0  0  0  0  0  0  0  0  0  0  0
    0.5600   24.1850   12.7210 C   0  0  0  0  0  0  0  0  0  0  0  0
    1.6200   24.0990   11.7620 C   0  0  0  0  0  0  0  0  0  0  0  0
    2.4630   24.0680   10.9660 N   0  0  0  0  0  0  0  0  0  0  0  0
   -1.6310   22.6020   15.3360 C   0  0  0  0  0  0  0  0  0  0  0  0
   -0.8590   21.4040   15.5400 O   0  0  0  0  0  0  0  0  0  0  0  0
    0.4098   19.4990   15.9308 H   0  0  0  0  0  0  0  0  0  0  0  0
   -0.1077   18.6162   14.4545 H   0  0  0  0  0  0  0  0  0  0  0  0
    1.4323   19.5409   14.4545 H   0  0  0  0  0  0  0  0  0  0  0  0
   -2.3480   19.9840   14.0329 H   0  0  0  0  0  0  0  0  0  0  0  0
   -1.8055   21.1610   12.7892 H   0  0  0  0  0  0  0  0  0  0  0  0
   -1.1504   19.4884   12.7892 H   0  0  0  0  0  0  0  0  0  0  0  0
    1.6025   21.7129   14.1729 H   0  0  0  0  0  0  0  0  0  0  0  0
    0.8027   21.3336   12.5971 H   0  0  0  0  0  0  0  0  0  0  0  0
    0.4910   27.2830   12.8040 H   0  0  0  0  0  0  0  0  0  0  0  0
    1.1439   29.6945   10.3854 H   0  0  0  0  0  0  0  0  0  0  0  0
    1.3866   28.5794   11.8202 H   0  0  0  0  0  0  0  0  0  0  0  0
    1.5789   27.1488    9.2926 H   0  0  0  0  0  0  0  0  0  0  0  0
    2.7669   28.5105    9.4016 H   0  0  0  0  0  0  0  0  0  0  0  0
    3.5240   26.5190   10.2670 H   0  0  0  0  0  0  0  0  0  0  0  0
   -0.5369   29.3807    8.9602 H   0  0  0  0  0  0  0  0  0  0  0  0
   -1.8251   28.1157    9.2733 H   0  0  0  0  0  0  0  0  0  0  0  0
   -1.5426   30.3999   11.1953 H   0  0  0  0  0  0  0  0  0  0  0  0
   -2.3350   30.6848    9.6009 H   0  0  0  0  0  0  0  0  0  0  0  0
   -3.5040   28.6190   10.2030 H   0  0  0  0  0  0  0  0  0  0  0  0
   -1.7519   23.1282   16.2944 H   0  0  0  0  0  0  0  0  0  0  0  0
   -2.6210   22.3372   14.9363 H   0  0  0  0  0  0  0  0  0  0  0  0
  1  2  1  0
  2  3  1  0
  2  4  1  0
  4  5  1  0
  5  6  2  0
  6  7  1  0
  7  8  1  0
  8  9  1  0
  9 10  1  0
 10 11  2  0
 10 12  1  0
 12 13  1  0
 13 14  1  0
 14 15  1  0
 12 16  1  0
 16 17  1  0
 17 18  1  0
  8 19  2  0
 19 20  1  0
 20 21  3  0
  6 22  1  0
 22 23  1  0
 23  2  1  0
 19  5  1  0
  1 24  1  0
  1 25  1  0
  1 26  1  0
  3 27  1  0
  3 28  1  0
  3 29  1  0
  4 30  1  0
  4 31  1  0
  9 32  1  0
 13 33  1  0
 13 34  1  0
 14 35  1  0
 14 36  1  0
 15 37  1  0
 16 38  1  0
 16 39  1  0
 17 40  1  0
 17 41  1  0
 18 42  1  0
 22 43  1  0
 22 44  1  0
M  END
>  <vina_affinity>  (1) 
-6.173

$$$$
dec_C63641868
     RDKit          3D

 57 62  0  0  0  0  0  0  0  0999 V2000
   -0.5950   23.1570   11.1940 O   0  0  0  0  0  0  0  0  0  0  0  0
   -0.5800   23.5340   12.3710 C   0  0  0  0  0  0  0  0  0  0  0  0
   -0.4480   25.0120   12.6970 C   0  0  1  0  0  0  0  0  0  0  0  0
   -0.7050   25.9320   11.4580 C   0  0  1  0  0  0  0  0  0  0  0  0
   -2.1830   26.0390   11.2470 N   0  0  0  0  0  0  0  0  0  0  0  0
   -2.7680   27.3190   11.6780 C   0  0  0  0  0  0  0  0  0  0  0  0
   -2.1920   28.5340   10.9250 C   0  0  0  0  0  0  0  0  0  0  0  0
   -0.7200   28.3720   10.7370 C   0  0  0  0  0  0  0  0  0  0  0  0
    0.0970   28.9150    9.8260 C   0  0  0  0  0  0  0  0  0  0  0  0
   -0.0480   29.8750    8.7790 C   0  0  0  0  0  0  0  0  0  0  0  0
    1.0250   30.1540    8.0200 C   0  0  0  0  0  0  0  0  0  0  0  0
    2.3140   29.5070    8.2330 C   0  0  0  0  0  0  0  0  0  0  0  0
    2.5280   28.5820    9.1850 C   0  0  0  0  0  0  0  0  0  0  0  0
    1.3880   28.2290   10.0410 C   0  0  0  0  0  0  0  0  0  0  0  0
    1.3240   27.3670   10.9770 N   0  0  0  0  0  0  0  0  0  0  0  0
   -0.0200   27.3330   11.5860 C   0  0  2  0  0  0  0  0  0  0  0  0
   -1.3900   25.2950   13.8610 C   0  0  1  0  0  0  0  0  0  0  0  0
   -2.7400   25.1770   13.4610 O   0  0  0  0  0  0  0  0  0  0  0  0
   -1.1420   24.4200   14.9740 N   0  0  0  0  0  0  0  0  0  0  0  0
   -1.3120   23.0210   14.6420 C   0  0  2  0  0  0  0  0  0  0  0  0
   -0.7710   22.1320   16.1360 S   0  0  0  0  0  0  0  0  0  0  0  0
   -0.5240   22.6660   13.4670 N   0  0  0  0  0  0  0  0  0  0  0  0
   -0.3910   21.2690   13.1150 C   0  0  0  0  0  0  0  0  0  0  0  0
   -1.5200   20.5160   12.7510 C   0  0  0  0  0  0  0  0  0  0  0  0
   -1.3830   19.1930   12.3390 C   0  0  0  0  0  0  0  0  0  0  0  0
   -0.1220   18.6080   12.2810 C   0  0  0  0  0  0  0  0  0  0  0  0
    1.0230   19.3260   12.6510 C   0  0  0  0  0  0  0  0  0  0  0  0
    2.2840   18.7080   12.6020 C   0  0  0  0  0  0  0  0  0  0  0  0
    3.4340   19.3880   13.0000 C   0  0  0  0  0  0  0  0  0  0  0  0
    3.3380   20.6930   13.4610 C   0  0  0  0  0  0  0  0  0  0  0  0
    2.0920   21.3220   13.5090 C   0  0  0  0  0  0  0  0  0  0  0  0
    0.9050   20.6690   13.0890 C   0  0  0  0  0  0  0  0  0  0  0  0
    0.5866   25.2489   12.9859 H   0  0  0  0  0  0  0  0  0  0  0  0
   -0.2394   25.4744   10.5727 H   0  0  0  0  0  0  0  0  0  0  0  0
   -2.3940   25.9040   10.2520 H   0  0  0  0  0  0  0  0  0  0  0  0
   -3.8537   27.2831   11.5050 H   0  0  0  0  0  0  0  0  0  0  0  0
   -2.5233   27.4482   12.7426 H   0  0  0  0  0  0  0  0  0  0  0  0
   -2.6774   28.6156    9.9413 H   0  0  0  0  0  0  0  0  0  0  0  0
   -2.3812   29.4441   11.5131 H   0  0  0  0  0  0  0  0  0  0  0  0
   -1.0122   30.3727    8.5987 H   0  0  0  0  0  0  0  0  0  0  0  0
    0.9278   30.8942    7.2121 H   0  0  0  0  0  0  0  0  0  0  0  0
    3.1541   29.7900    7.5818 H   0  0  0  0  0  0  0  0  0  0  0  0
    3.5131   28.1106    9.3169 H   0  0  0  0  0  0  0  0  0  0  0  0
    2.0930   26.7570   11.2870 H   0  0  0  0  0  0  0  0  0  0  0  0
   -0.0306   27.5237   12.6693 H   0  0  0  0  0  0  0  0  0  0  0  0
   -1.1959   26.3291   14.1820 H   0  0  0  0  0  0  0  0  0  0  0  0
   -2.8100   24.2810   13.0820 H   0  0  0  0  0  0  0  0  0  0  0  0
   -0.1890   24.5290   15.3150 H   0  0  0  0  0  0  0  0  0  0  0  0
   -2.3487   22.7663   14.3767 H   0  0  0  0  0  0  0  0  0  0  0  0
   -1.5730   21.0740   15.9550 H   0  0  0  0  0  0  0  0  0  0  0  0
   -2.5189   20.9748   12.7918 H   0  0  0  0  0  0  0  0  0  0  0  0
   -2.2727   18.6098   12.0591 H   0  0  0  0  0  0  0  0  0  0  0  0
   -0.0225   17.5670   11.9398 H   0  0  0  0  0  0  0  0  0  0  0  0
    2.3650   17.6711   12.2439 H   0  0  0  0  0  0  0  0  0  0  0  0
    4.4143   18.8915   12.9487 H   0  0  0  0  0  0  0  0  0  0  0  0
    4.2404   21.2306   13.7877 H   0  0  0  0  0  0  0  0  0  0  0  0
    2.0293   22.3544   13.8836 H   0  0  0  0  0  0  0  0  0  0  0  0
  1  2  2  0
  2  3  1  0
  3  4  1  0
  4  5  1  0
  5  6  1  0
  6  7  1  0
  7  8  1  0
  8  9  2  0
  9 10  1  0
 10 11  2  0
 11 12  1  0
 12 13  2  0
 13 14  1  0
 14 15  2  0
 15 16  1  0
  3 17  1  0
 17 18  1  0
 17 19  1  0
 19 20  1  0
 20 21  1  0
 20 22  1  0
 22 23  1  0
 23 24  2  0
 24 25  1  0
 25 26  2  0
 26 27  1  0
 27 28  2  0
 28 29  1  0
 29 30  2  0
 30 31  1  0
 31 32  2  0
 22  2  1  0
 32 23  1  0
 16  4  1  0
 32 27  1  0
 16  8  1  0
 14  9  1  0
  3 33  1  1
  4 34  1  6
  5 35  1  0
  6 36  1  0
  6 37  1  0
  7 38  1  0
  7 39  1  0
 10 40  1  0
 11 41  1  0
 12 42  1  0
 13 43  1  0
 15 44  1  0
 16 45  1  1
 17 46  1  1
 18 47  1  0
 19 48  1  0
 20 49  1  6
 21 50  1  0
 24 51  1  0
 25 52  1  0
 26 53  1  0
 28 54  1  0
 29 55  1  0
 30 56  1  0
 31 57  1  0
M  CHG  1  15   1
M  END
>  <vina_affinity>  (1) 
-9.620

$$$$
dec_C62494438
     RDKit          3D

 41 43  0  0  0  0  0  0  0  0999 V2000
   -0.9790   25.6040   13.3870 C   0  0  0  0  0  0  0  0  0  0  0  0
   -1.1230   26.8420   12.5450 C   0  0  0  0  0  0  0  0  0  0  0  0
   -0.7720   28.0860   13.0960 C   0  0  0  0  0  0  0  0  0  0  0  0
   -0.8560   29.2530   12.3370 C   0  0  0  0  0  0  0  0  0  0  0  0
   -1.2660   29.1910   11.0020 C   0  0  0  0  0  0  0  0  0  0  0  0
   -1.3360   30.3920   10.1800 C   0  0  0  0  0  0  0  0  0  0  0  0
   -2.3310   31.2610   10.2250 N   0  0  0  0  0  0  0  0  0  0  0  0
   -1.9650   32.3180    9.4460 N   0  0  0  0  0  0  0  0  0  0  0  0
   -0.7770   32.1200    8.9040 N   0  0  0  0  0  0  0  0  0  0  0  0
   -0.3880   30.8710    9.2760 N   0  0  0  0  0  0  0  0  0  0  0  0
    0.7880   30.2910    8.7240 C   0  0  0  0  0  0  0  0  0  0  0  0
    1.5290   29.3180    9.4020 C   0  0  0  0  0  0  0  0  0  0  0  0
    2.6810   28.7740    8.8180 C   0  0  0  0  0  0  0  0  0  0  0  0
    3.1090   29.1780    7.5470 C   0  0  0  0  0  0  0  0  0  0  0  0
    4.3610   28.5680    6.9410 C   0  0  0  0  0  0  0  0  0  0  0  0
    4.9380   27.4670    7.8350 C   0  0  0  0  0  0  0  0  0  0  0  0
    4.1050   28.0440    5.5260 C   0  0  0  0  0  0  0  0  0  0  0  0
    2.3510   30.1370    6.8640 C   0  0  0  0  0  0  0  0  0  0  0  0
    1.2000   30.6830    7.4410 C   0  0  0  0  0  0  0  0  0  0  0  0
   -1.6480   27.9570   10.4620 C   0  0  0  0  0  0  0  0  0  0  0  0
   -1.6250   26.7850   11.2320 C   0  0  0  0  0  0  0  0  0  0  0  0
   -1.8950   25.5590   10.6030 N   0  0  0  0  0  0  0  0  0  0  0  0
   -1.0110   25.8789   14.4516 H   0  0  0  0  0  0  0  0  0  0  0  0
   -1.8025   24.9101   13.1626 H   0  0  0  0  0  0  0  0  0  0  0  0
   -0.0182   25.1176   13.1626 H   0  0  0  0  0  0  0  0  0  0  0  0
   -0.4267   28.1401   14.1390 H   0  0  0  0  0  0  0  0  0  0  0  0
   -0.5996   30.2225   12.7890 H   0  0  0  0  0  0  0  0  0  0  0  0
    1.2065   28.9784   10.3973 H   0  0  0  0  0  0  0  0  0  0  0  0
    3.2592   28.0165    9.3674 H   0  0  0  0  0  0  0  0  0  0  0  0
    5.1093   29.3712    6.8700 H   0  0  0  0  0  0  0  0  0  0  0  0
    4.7951   27.7397    8.8910 H   0  0  0  0  0  0  0  0  0  0  0  0
    4.4212   26.5183    7.6281 H   0  0  0  0  0  0  0  0  0  0  0  0
    6.0122   27.3521    7.6281 H   0  0  0  0  0  0  0  0  0  0  0  0
    3.6228   27.0569    5.5822 H   0  0  0  0  0  0  0  0  0  0  0  0
    3.4471   28.7435    4.9894 H   0  0  0  0  0  0  0  0  0  0  0  0
    5.0611   27.9550    4.9894 H   0  0  0  0  0  0  0  0  0  0  0  0
    2.6645   30.4647    5.8619 H   0  0  0  0  0  0  0  0  0  0  0  0
    0.6119   31.4270    6.8837 H   0  0  0  0  0  0  0  0  0  0  0  0
   -1.9728   27.9057    9.4123 H   0  0  0  0  0  0  0  0  0  0  0  0
   -2.8820   25.3290   10.5550 H   0  0  0  0  0  0  0  0  0  0  0  0
   -1.4450   25.4580    9.6980 H   0  0  0  0  0  0  0  0  0  0  0  0
  1  2  1  0
  2  3  2  0
  3  4  1  0
  4  5  2  0
  5  6  1  0
  6  7  2  0
  7  8  1  0
  8  9  2  0
  9 10  1  0
 10 11  1  0
 11 12  2  0
 12 13  1  0
 13 14  2  0
 14 15  1  0
 15 16  1  0
 15 17  1  0
 14 18  1  0
 18 19  2  0
  5 20  1  0
 20 21  2  0
 21 22  1  0
 21  2  1  0
 10  6  1  0
 19 11  1  0
  1 23  1  0
  1 24  1  0
  1 25  1  0
  3 26  1  0
  4 27  1  0
 12 28  1  0
 13 29  1  0
 15 30  1  0
 16 31  1  0
 16 32  1  0
 16 33  1  0
 17 34  1  0
 17 35  1  0
 17 36  1  0
 18 37  1  0
 19 38  1  0
 20 39  1  0
 22 40  1  0
 22 41  1  0
M  END
>  <vina_affinity>  (1) 
-8.616

$$$$
dec_C60361512
     RDKit          3D

 60 63  0  0  0  0  0  0  0  0999 V2000
    2.7220   29.7530    7.9340 C   0  0  0  0  0  0  0  0  0  0  0  0
    1.4690   29.5370    8.7570 C   0  0  0  0  0  0  0  0  0  0  0  0
    0.4380   30.2550    8.4230 N   0  0  0  0  0  0  0  0  0  0  0  0
   -0.7060   30.0610    9.1350 C   0  0  0  0  0  0  0  0  0  0  0  0
   -1.8730   30.6510    9.0050 N   0  0  0  0  0  0  0  0  0  0  0  0
   -2.6290   30.0580    9.9560 C   0  0  0  0  0  0  0  0  0  0  0  0
   -3.8960   30.4430   10.0860 N   0  0  0  0  0  0  0  0  0  0  0  0
   -2.0180   29.1610   10.7140 N   0  0  0  0  0  0  0  0  0  0  0  0
   -0.7750   29.1330   10.1760 N   0  0  0  0  0  0  0  0  0  0  0  0
    0.3350   28.3620   10.5540 C   0  0  0  0  0  0  0  0  0  0  0  0
    0.1030   27.3910   11.6790 C   0  0  0  0  0  0  0  0  0  0  0  0
    1.5050   28.5230    9.8900 C   0  0  0  0  0  0  0  0  0  0  0  0
    2.7980   27.8190   10.2000 C   0  0  0  0  0  0  0  0  0  0  0  0
    2.9350   26.5550    9.3610 C   0  0  0  0  0  0  0  0  0  0  0  0
    2.1510   25.6150    9.4400 O   0  0  0  0  0  0  0  0  0  0  0  0
    4.0220   26.5600    8.5160 N   0  0  0  0  0  0  0  0  0  0  0  0
    4.3040   25.4490    7.6110 C   0  0  2  0  0  0  0  0  0  0  0  0
    5.6240   24.7460    8.0150 C   0  0  0  0  0  0  0  0  0  0  0  0
    6.7860   24.7800    6.9980 C   0  0  0  0  0  0  0  0  0  0  0  0
    7.8570   25.8290    7.3650 C   0  0  0  0  0  0  0  0  0  0  0  0
    9.2180   25.5680    6.7110 C   0  0  0  0  0  0  0  0  0  0  0  0
    9.0810   24.8510    5.3750 C   0  0  0  0  0  0  0  0  0  0  0  0
    8.3950   23.4930    5.5250 C   0  0  0  0  0  0  0  0  0  0  0  0
    7.4280   23.4210    6.7110 C   0  0  0  0  0  0  0  0  0  0  0  0
    4.2590   25.9910    6.1910 C   0  0  0  0  0  0  0  0  0  0  0  0
    4.4800   27.3480    5.9000 C   0  0  0  0  0  0  0  0  0  0  0  0
    4.4000   27.8180    4.5880 C   0  0  0  0  0  0  0  0  0  0  0  0
    4.0850   26.9440    3.5490 C   0  0  0  0  0  0  0  0  0  0  0  0
    3.8450   25.6010    3.8220 C   0  0  0  0  0  0  0  0  0  0  0  0
    3.9250   25.1280    5.1340 C   0  0  0  0  0  0  0  0  0  0  0  0
    3.5807   29.9010    8.6054 H   0  0  0  0  0  0  0  0  0  0  0  0
    2.9002   28.8723    7.2994 H   0  0  0  0  0  0  0  0  0  0  0  0
    2.5951   30.6425    7.2994 H   0  0  0  0  0  0  0  0  0  0  0  0
   -4.0530   31.3970   10.3820 H   0  0  0  0  0  0  0  0  0  0  0  0
   -4.5340   30.1160    9.3710 H   0  0  0  0  0  0  0  0  0  0  0  0
    0.2267   27.9088   12.6416 H   0  0  0  0  0  0  0  0  0  0  0  0
   -0.9172   26.9858   11.6091 H   0  0  0  0  0  0  0  0  0  0  0  0
    0.8299   26.5683   11.6091 H   0  0  0  0  0  0  0  0  0  0  0  0
    3.6387   28.4929    9.9783 H   0  0  0  0  0  0  0  0  0  0  0  0
    2.8038   27.5406   11.2642 H   0  0  0  0  0  0  0  0  0  0  0  0
    4.6660   27.3390    8.5150 H   0  0  0  0  0  0  0  0  0  0  0  0
    3.5482   24.6524    7.6751 H   0  0  0  0  0  0  0  0  0  0  0  0
    5.9813   25.2211    8.9406 H   0  0  0  0  0  0  0  0  0  0  0  0
    5.3602   23.6820    8.1062 H   0  0  0  0  0  0  0  0  0  0  0  0
    6.3063   25.0862    6.0567 H   0  0  0  0  0  0  0  0  0  0  0  0
    7.5000   26.8184    7.0429 H   0  0  0  0  0  0  0  0  0  0  0  0
    8.0051   25.7728    8.4535 H   0  0  0  0  0  0  0  0  0  0  0  0
    9.7236   26.5310    6.5469 H   0  0  0  0  0  0  0  0  0  0  0  0
    9.8004   24.9224    7.3848 H   0  0  0  0  0  0  0  0  0  0  0  0
    8.4852   25.4773    4.6947 H   0  0  0  0  0  0  0  0  0  0  0  0
   10.0911   24.6805    4.9743 H   0  0  0  0  0  0  0  0  0  0  0  0
    7.8312   23.2847    4.6037 H   0  0  0  0  0  0  0  0  0  0  0  0
    9.1860   22.7510    5.7088 H   0  0  0  0  0  0  0  0  0  0  0  0
    6.6357   22.6932    6.4818 H   0  0  0  0  0  0  0  0  0  0  0  0
    7.9974   23.1148    7.6009 H   0  0  0  0  0  0  0  0  0  0  0  0
    4.7186   28.0473    6.7149 H   0  0  0  0  0  0  0  0  0  0  0  0
    4.5860   28.8808    4.3736 H   0  0  0  0  0  0  0  0  0  0  0  0
    4.0263   27.3153    2.5152 H   0  0  0  0  0  0  0  0  0  0  0  0
    3.5919   24.9108    3.0037 H   0  0  0  0  0  0  0  0  0  0  0  0
    3.7240   24.0667    5.3420 H   0  0  0  0  0  0  0  0  0  0  0  0
  1  2  1  0
  2  3  2  0
  3  4  1  0
  4  5  2  0
  5  6  1  0
  6  7  1  0
  6  8  2  0
  8  9  1  0
  9 10  1  0
 10 11  1  0
 10 12  2  0
 12 13  1  0
 13 14  1  0
 14 15  2  0
 14 16  1  0
 16 17  1  0
 17 18  1  0
 18 19  1  0
 19 20  1  0
 20 21  1  0
 21 22  1  0
 22 23  1  0
 23 24  1  0
 17 25  1  0
 25 26  2  0
 26 27  1  0
 27 28  2  0
 28 29  1  0
 29 30  2  0
 12  2  1  0
 24 19  1  0
 30 25  1  0
  9  4  1  0
  1 31  1  0
  1 32  1  0
  1 33  1  0
  7 34  1  0
  7 35  1  0
 11 36  1  0
 11 37  1  0
 11 38  1  0
 13 39  1  0
 13 40  1  0
 16 41  1  0
 17 42  1  6
 18 43  1  0
 18 44  1  0
 19 45  1  0
 20 46  1  0
 20 47  1  0
 21 48  1  0
 21 49  1  0
 22 50  1  0
 22 51  1  0
 23 52  1  0
 23 53  1  0
 24 54  1  0
 24 55  1  0
 26 56  1  0
 27 57  1  0
 28 58  1  0
 29 59  1  0
 30 60  1  0
M  END
>  <vina_affinity>  (1) 
-8.537

$$$$
dec_C67561571
     RDKit          3D

 52 53  0  0  0  0  0  0  0  0999 V2000
   -3.7740   30.8250    8.6070 C   0  0  0  0  0  0  0  0  0  0  0  0
   -3.2960   30.8820   10.0500 C   0  0  0  0  0  0  0  0  0  0  0  0
   -2.1370   31.8600   10.2760 C   0  0  0  0  0  0  0  0  0  0  0  0
   -0.7620   31.2110   10.5530 C   0  0  2  0  0  0  0  0  0  0  0  0
   -0.0820   30.8040    9.2320 C   0  0  0  0  0  0  0  0  0  0  0  0
   -0.2840   29.3590    8.7710 C   0  0  0  0  0  0  0  0  0  0  0  0
    0.6930   28.3430    9.3680 C   0  0  0  0  0  0  0  0  0  0  0  0
    0.4160   28.0570   10.7710 N   0  0  0  0  0  0  0  0  0  0  0  0
    0.3590   26.7170   11.1710 C   0  0  0  0  0  0  0  0  0  0  0  0
    1.3390   25.9690   11.1970 O   0  0  0  0  0  0  0  0  0  0  0  0
   -0.9860   26.1010   11.6520 C   0  0  0  0  0  0  0  0  0  0  0  0
   -1.9120   25.8900   10.8870 O   0  0  0  0  0  0  0  0  0  0  0  0
   -0.9370   25.8390   13.0100 N   0  0  0  0  0  0  0  0  0  0  0  0
   -1.9400   25.2920   13.8290 C   0  0  0  0  0  0  0  0  0  0  0  0
   -3.1380   25.9390   14.1230 C   0  0  0  0  0  0  0  0  0  0  0  0
   -4.0950   25.3240   14.9410 C   0  0  0  0  0  0  0  0  0  0  0  0
   -3.8690   24.0560   15.4920 C   0  0  0  0  0  0  0  0  0  0  0  0
   -4.9300   23.4330   16.3570 C   0  0  0  0  0  0  0  0  0  0  0  0
   -2.6580   23.4050   15.1970 C   0  0  0  0  0  0  0  0  0  0  0  0
   -2.3610   22.0470   15.7300 C   0  0  0  0  0  0  0  0  0  0  0  0
   -2.8090   20.9930   14.9830 N   0  0  0  0  0  0  0  0  0  0  0  0
   -1.7310   21.8670   16.7620 O   0  0  0  0  0  0  0  0  0  0  0  0
   -1.7060   24.0230   14.3670 C   0  0  0  0  0  0  0  0  0  0  0  0
    0.3560   29.1750   11.7230 C   0  0  0  0  0  0  0  0  0  0  0  0
   -0.8700   30.0870   11.6060 C   0  0  0  0  0  0  0  0  0  0  0  0
   -4.8661   30.6948    8.5874 H   0  0  0  0  0  0  0  0  0  0  0  0
   -3.5071   31.7613    8.0951 H   0  0  0  0  0  0  0  0  0  0  0  0
   -3.2944   29.9777    8.0951 H   0  0  0  0  0  0  0  0  0  0  0  0
   -4.1402   31.1913   10.6838 H   0  0  0  0  0  0  0  0  0  0  0  0
   -2.9252   29.8786   10.3062 H   0  0  0  0  0  0  0  0  0  0  0  0
   -2.0412   32.4855    9.3762 H   0  0  0  0  0  0  0  0  0  0  0  0
   -2.3922   32.4253   11.1845 H   0  0  0  0  0  0  0  0  0  0  0  0
   -0.0911   31.9519   11.0123 H   0  0  0  0  0  0  0  0  0  0  0  0
   -0.4691   31.4632    8.4411 H   0  0  0  0  0  0  0  0  0  0  0  0
    0.9974   30.8983    9.4219 H   0  0  0  0  0  0  0  0  0  0  0  0
   -1.3040   29.0531    9.0466 H   0  0  0  0  0  0  0  0  0  0  0  0
   -0.1031   29.3561    7.6860 H   0  0  0  0  0  0  0  0  0  0  0  0
    0.6202   27.4061    8.7963 H   0  0  0  0  0  0  0  0  0  0  0  0
    1.7023   28.7765    9.3090 H   0  0  0  0  0  0  0  0  0  0  0  0
   -0.0310   26.0370   13.4300 H   0  0  0  0  0  0  0  0  0  0  0  0
   -3.3341   26.9396   13.7102 H   0  0  0  0  0  0  0  0  0  0  0  0
   -5.0397   25.8456   15.1541 H   0  0  0  0  0  0  0  0  0  0  0  0
   -4.6743   23.5831   17.4163 H   0  0  0  0  0  0  0  0  0  0  0  0
   -5.9006   23.9046   16.1437 H   0  0  0  0  0  0  0  0  0  0  0  0
   -4.9911   22.3556   16.1437 H   0  0  0  0  0  0  0  0  0  0  0  0
   -3.0890   21.1060   14.0190 H   0  0  0  0  0  0  0  0  0  0  0  0
   -2.4950   20.0760   15.2770 H   0  0  0  0  0  0  0  0  0  0  0  0
   -0.7650   23.5013   14.1380 H   0  0  0  0  0  0  0  0  0  0  0  0
    0.3673   28.7537   12.7391 H   0  0  0  0  0  0  0  0  0  0  0  0
    1.2236   29.8105   11.4918 H   0  0  0  0  0  0  0  0  0  0  0  0
   -1.7355   29.4601   11.3455 H   0  0  0  0  0  0  0  0  0  0  0  0
   -0.9660   30.5916   12.5787 H   0  0  0  0  0  0  0  0  0  0  0  0
  1  2  1  0
  2  3  1  0
  3  4  1  0
  4  5  1  0
  5  6  1  0
  6  7  1  0
  7  8  1  0
  8  9  1  0
  9 10  2  0
  9 11  1  0
 11 12  2  0
 11 13  1  0
 13 14  1  0
 14 15  2  0
 15 16  1  0
 16 17  2  0
 17 18  1  0
 17 19  1  0
 19 20  1  0
 20 21  1  0
 20 22  2  0
 19 23  2  0
  8 24  1  0
 24 25  1  0
 25  4  1  0
 23 14  1  0
  1 26  1  0
  1 27  1  0
  1 28  1  0
  2 29  1  0
  2 30  1  0
  3 31  1  0
  3 32  1  0
  4 33  1  1
  5 34  1  0
  5 35  1  0
  6 36  1  0
  6 37  1  0
  7 38  1  0
  7 39  1  0
 13 40  1  0
 15 41  1  0
 16 42  1  0
 18 43  1  0
 18 44  1  0
 18 45  1  0
 21 46  1  0
 21 47  1  0
 23 48  1  0
 24 49  1  0
 24 50  1  0
 25 51  1  0
 25 52  1  0
M  END
>  <vina_affinity>  (1) 
-5.649

$$$$
dec_C66175782
     RDKit          3D

 64 66  0  0  0  0  0  0  0  0999 V2000
   -2.2700   33.4550   11.2110 C   0  0  0  0  0  0  0  0  0  0  0  0
   -2.4140   32.2570   10.4540 O   0  0  0  0  0  0  0  0  0  0  0  0
   -1.3690   31.9290    9.6250 C   0  0  0  0  0  0  0  0  0  0  0  0
   -0.7070   32.8520    8.8090 C   0  0  0  0  0  0  0  0  0  0  0  0
    0.3320   32.4430    7.9690 C   0  0  0  0  0  0  0  0  0  0  0  0
    0.7140   31.1010    7.9160 C   0  0  0  0  0  0  0  0  0  0  0  0
    1.8550   30.6670    7.0440 C   0  0  0  0  0  0  0  0  0  0  0  0
    0.0560   30.1770    8.7340 C   0  0  0  0  0  0  0  0  0  0  0  0
   -0.9920   30.5710    9.5900 C   0  0  0  0  0  0  0  0  0  0  0  0
   -1.6510   29.5100   10.4640 C   0  0  1  0  0  0  0  0  0  0  0  0
   -3.1600   29.4480   10.2240 C   0  0  0  0  0  0  0  0  0  0  0  0
   -1.0490   28.2000   10.2510 N   0  0  0  0  0  0  0  0  0  0  0  0
   -0.2300   27.6450   11.1940 C   0  0  0  0  0  0  0  0  0  0  0  0
   -0.0550   28.1500   12.3010 O   0  0  0  0  0  0  0  0  0  0  0  0
    0.3930   26.4610   10.8120 N   0  0  0  0  0  0  0  0  0  0  0  0
   -0.2660   25.1560   10.8250 C   0  0  0  0  0  0  0  0  0  0  0  0
    1.8190   26.4730   10.4450 C   0  0  2  0  0  0  0  0  0  0  0  0
    2.2120   27.7410    9.6820 C   0  0  0  0  0  0  0  0  0  0  0  0
    3.6860   27.7390    9.3340 C   0  0  0  0  0  0  0  0  0  0  0  0
    4.0950   26.4930    8.5790 N   0  0  2  0  0  0  0  0  0  0  0  0
    3.8990   26.5640    7.0570 C   0  0  0  0  0  0  0  0  0  0  0  0
    4.4730   27.8930    6.5370 C   0  0  0  0  0  0  0  0  0  0  0  0
    4.6830   27.8400    5.0270 C   0  0  0  0  0  0  0  0  0  0  0  0
    3.7860   26.8920    4.4650 O   0  0  0  0  0  0  0  0  0  0  0  0
    4.1310   25.5460    4.7950 C   0  0  0  0  0  0  0  0  0  0  0  0
    4.4790   25.3950    6.2770 C   0  0  0  0  0  0  0  0  0  0  0  0
    3.7050   25.2210    9.2910 C   0  0  0  0  0  0  0  0  0  0  0  0
    2.2440   25.1960    9.7100 C   0  0  0  0  0  0  0  0  0  0  0  0
   -2.2987   33.2162   12.2844 H   0  0  0  0  0  0  0  0  0  0  0  0
   -1.3083   33.9298   10.9666 H   0  0  0  0  0  0  0  0  0  0  0  0
   -3.0918   34.1442   10.9666 H   0  0  0  0  0  0  0  0  0  0  0  0
   -1.0072   33.9101    8.8287 H   0  0  0  0  0  0  0  0  0  0  0  0
    0.8530   33.1839    7.3447 H   0  0  0  0  0  0  0  0  0  0  0  0
    2.6973   30.3466    7.6748 H   0  0  0  0  0  0  0  0  0  0  0  0
    1.5329   29.8286    6.4089 H   0  0  0  0  0  0  0  0  0  0  0  0
    2.1715   31.5075    6.4089 H   0  0  0  0  0  0  0  0  0  0  0  0
    0.3627   29.1209    8.7088 H   0  0  0  0  0  0  0  0  0  0  0  0
   -1.4820   29.8009   11.5113 H   0  0  0  0  0  0  0  0  0  0  0  0
   -3.6844   29.4265   11.1907 H   0  0  0  0  0  0  0  0  0  0  0  0
   -3.4774   30.3339    9.6543 H   0  0  0  0  0  0  0  0  0  0  0  0
   -3.4036   28.5391    9.6543 H   0  0  0  0  0  0  0  0  0  0  0  0
   -0.7190   28.0920    9.3010 H   0  0  0  0  0  0  0  0  0  0  0  0
   -0.4271   24.8369   11.8653 H   0  0  0  0  0  0  0  0  0  0  0  0
   -1.2351   25.2294   10.3097 H   0  0  0  0  0  0  0  0  0  0  0  0
    0.3684   24.4197   10.3097 H   0  0  0  0  0  0  0  0  0  0  0  0
    2.3826   26.4895   11.3895 H   0  0  0  0  0  0  0  0  0  0  0  0
    1.6247   27.7971    8.7536 H   0  0  0  0  0  0  0  0  0  0  0  0
    2.0081   28.6102   10.3246 H   0  0  0  0  0  0  0  0  0  0  0  0
    3.9036   28.6184    8.7100 H   0  0  0  0  0  0  0  0  0  0  0  0
    4.2545   27.7645   10.2753 H   0  0  0  0  0  0  0  0  0  0  0  0
    5.1190   26.5150    8.6660 H   0  0  0  0  0  0  0  0  0  0  0  0
    2.8141   26.5039    6.8853 H   0  0  0  0  0  0  0  0  0  0  0  0
    3.7715   28.7062    6.7750 H   0  0  0  0  0  0  0  0  0  0  0  0
    5.4445   28.0704    7.0215 H   0  0  0  0  0  0  0  0  0  0  0  0
    4.4894   28.8322    4.5933 H   0  0  0  0  0  0  0  0  0  0  0  0
    5.7195   27.5443    4.8075 H   0  0  0  0  0  0  0  0  0  0  0  0
    3.2777   24.8924    4.5614 H   0  0  0  0  0  0  0  0  0  0  0  0
    5.0168   25.2661    4.2059 H   0  0  0  0  0  0  0  0  0  0  0  0
    4.0561   24.4540    6.6586 H   0  0  0  0  0  0  0  0  0  0  0  0
    5.5724   25.3816    6.3967 H   0  0  0  0  0  0  0  0  0  0  0  0
    3.8905   24.3716    8.6171 H   0  0  0  0  0  0  0  0  0  0  0  0
    4.3101   25.1594   10.2075 H   0  0  0  0  0  0  0  0  0  0  0  0
    1.6214   25.0837    8.8102 H   0  0  0  0  0  0  0  0  0  0  0  0
    2.1109   24.3526   10.4035 H   0  0  0  0  0  0  0  0  0  0  0  0
  1  2  1  0
  2  3  1  0
  3  4  2  0
  4  5  1  0
  5  6  2  0
  6  7  1  0
  6  8  1  0
  8  9  2  0
  9 10  1  0
 10 11  1  0
 10 12  1  0
 12 13  1  0
 13 14  2  0
 13 15  1  0
 15 16  1  0
 15 17  1  0
 17 18  1  0
 18 19  1  0
 19 20  1  0
 20 21  1  0
 21 22  1  0
 22 23  1  0
 23 24  1  0
 24 25  1  0
 25 26  1  0
 20 27  1  0
 27 28  1  0
  9  3  1  0
 28 17  1  0
 26 21  1  0
  1 29  1  0
  1 30  1  0
  1 31  1  0
  4 32  1  0
  5 33  1  0
  7 34  1  0
  7 35  1  0
  7 36  1  0
  8 37  1  0
 10 38  1  1
 11 39  1  0
 11 40  1  0
 11 41  1  0
 12 42  1  0
 16 43  1  0
 16 44  1  0
 16 45  1  0
 17 46  1  1
 18 47  1  0
 18 48  1  0
 19 49  1  0
 19 50  1  0
 20 51  1  6
 21 52  1  0
 22 53  1  0
 22 54  1  0
 23 55  1  0
 23 56  1  0
 25 57  1  0
 25 58  1  0
 26 59  1  0
 26 60  1  0
 27 61  1  0
 27 62  1  0
 28 63  1  0
 28 64  1  0
M  CHG  1  20   1
M  END
>  <vina_affinity>  (1) 
-7.804

$$$$
dec_C09083594
     RDKit          3D

 47 47  0  0  0  0  0  0  0  0999 V2000
   -4.6670   25.2180   14.9740 C   0  0  0  0  0  0  0  0  0  0  0  0
   -3.8360   24.1030   14.5860 N   0  0  0  0  0  0  0  0  0  0  0  0
   -2.5180   24.0770   15.0040 C   0  0  0  0  0  0  0  0  0  0  0  0
   -1.9940   24.9840   15.6320 O   0  0  0  0  0  0  0  0  0  0  0  0
   -1.8950   22.9300   14.5730 N   0  0  0  0  0  0  0  0  0  0  0  0
   -0.5740   22.6770   14.8820 C   0  0  0  0  0  0  0  0  0  0  0  0
   -0.0550   22.9060   15.9780 O   0  0  0  0  0  0  0  0  0  0  0  0
    0.2100   21.9620   13.7620 C   0  0  2  0  0  0  0  0  0  0  0  0
    1.1510   20.9200   14.3470 C   0  0  0  0  0  0  0  0  0  0  0  0
    1.0130   22.9390   13.0870 O   0  0  0  0  0  0  0  0  0  0  0  0
    0.3780   23.5790   12.0640 C   0  0  0  0  0  0  0  0  0  0  0  0
   -0.2840   23.0030   11.2100 O   0  0  0  0  0  0  0  0  0  0  0  0
    0.5510   25.0890   12.2040 C   0  0  2  0  0  0  0  0  0  0  0  0
   -0.6160   25.7960   11.5720 N   0  0  0  0  0  0  0  0  0  0  0  0
   -1.3670   26.9470   12.5430 S   0  0  0  0  0  0  0  0  0  0  0  0
   -0.5380   27.1500   13.7090 O   0  0  0  0  0  0  0  0  0  0  0  0
   -2.7660   26.6030   12.6570 O   0  0  0  0  0  0  0  0  0  0  0  0
   -1.2430   28.3860   11.5140 C   0  0  0  0  0  0  0  0  0  0  0  0
   -0.0120   29.0250   11.3510 C   0  0  0  0  0  0  0  0  0  0  0  0
    0.0660   30.1690   10.5540 C   0  0  0  0  0  0  0  0  0  0  0  0
   -1.0820   30.6730    9.9290 C   0  0  0  0  0  0  0  0  0  0  0  0
   -0.9090   32.0930    8.9600 Cl  0  0  0  0  0  0  0  0  0  0  0  0
   -2.3140   30.0290   10.1050 C   0  0  0  0  0  0  0  0  0  0  0  0
   -3.7700   30.6020    9.3700 Cl  0  0  0  0  0  0  0  0  0  0  0  0
   -2.3970   28.8840   10.9010 C   0  0  0  0  0  0  0  0  0  0  0  0
    1.8620   25.5870   11.5550 C   0  0  2  0  0  0  0  0  0  0  0  0
    1.8440   25.6780   10.0290 C   0  0  0  0  0  0  0  0  0  0  0  0
    2.9760   24.7850   11.9630 O   0  0  0  0  0  0  0  0  0  0  0  0
   -4.7115   25.2777   16.0715 H   0  0  0  0  0  0  0  0  0  0  0  0
   -4.2412   26.1496   14.5731 H   0  0  0  0  0  0  0  0  0  0  0  0
   -5.6815   25.0762   14.5731 H   0  0  0  0  0  0  0  0  0  0  0  0
   -4.2930   23.2020   14.5920 H   0  0  0  0  0  0  0  0  0  0  0  0
   -2.2220   22.6480   13.6620 H   0  0  0  0  0  0  0  0  0  0  0  0
   -0.5030   21.4730   13.0819 H   0  0  0  0  0  0  0  0  0  0  0  0
    1.1105   20.9648   15.4453 H   0  0  0  0  0  0  0  0  0  0  0  0
    0.8449   19.9188   14.0094 H   0  0  0  0  0  0  0  0  0  0  0  0
    2.1781   21.1227   14.0094 H   0  0  0  0  0  0  0  0  0  0  0  0
    0.5983   25.3161   13.2793 H   0  0  0  0  0  0  0  0  0  0  0  0
   -1.3210   25.1160   11.2340 H   0  0  0  0  0  0  0  0  0  0  0  0
    0.8879   28.6308   11.8458 H   0  0  0  0  0  0  0  0  0  0  0  0
    1.0323   30.6762   10.4164 H   0  0  0  0  0  0  0  0  0  0  0  0
   -3.3630   28.3779   11.0445 H   0  0  0  0  0  0  0  0  0  0  0  0
    1.9651   26.6186   11.9227 H   0  0  0  0  0  0  0  0  0  0  0  0
    1.6388   26.7153    9.7259 H   0  0  0  0  0  0  0  0  0  0  0  0
    2.8212   25.3664    9.6315 H   0  0  0  0  0  0  0  0  0  0  0  0
    1.0590   25.0178    9.6315 H   0  0  0  0  0  0  0  0  0  0  0  0
    2.6340   24.0950   12.5650 H   0  0  0  0  0  0  0  0  0  0  0  0
  1  2  1  0
  2  3  1  0
  3  4  2  0
  3  5  1  0
  5  6  1  0
  6  7  2  0
  6  8  1  0
  8  9  1  0
  8 10  1  0
 10 11  1  0
 11 12  2  0
 11 13  1  0
 13 14  1  0
 14 15  1  0
 15 16  2  0
 15 17  2  0
 15 18  1  0
 18 19  2  0
 19 20  1  0
 20 21  2  0
 21 22  1  0
 21 23  1  0
 23 24  1  0
 23 25  2  0
 13 26  1  0
 26 27  1  0
 26 28  1  0
 25 18  1  0
  1 29  1  0
  1 30  1  0
  1 31  1  0
  2 32  1  0
  5 33  1  0
  8 34  1  6
  9 35  1  0
  9 36  1  0
  9 37  1  0
 13 38  1  1
 14 39  1  0
 19 40  1  0
 20 41  1  0
 25 42  1  0
 26 43  1  1
 27 44  1  0
 27 45  1  0
 27 46  1  0
 28 47  1  0
M  END
>  <vina_affinity>  (1) 
-7.649

$$$$
dec_C67177773
     RDKit          3D

 45 48  0  0  0  0  0  0  0  0999 V2000
    0.8480   24.3690   12.0820 C   0  0  0  0  0  0  0  0  0  0  0  0
   -0.5030   25.0790   11.9980 C   0  0  2  0  0  0  0  0  0  0  0  0
   -0.7330   25.5390   10.5370 C   0  0  0  0  0  0  0  0  0  0  0  0
   -1.8840   26.3770   10.3980 O   0  0  0  0  0  0  0  0  0  0  0  0
   -1.8850   27.5180   11.2870 C   0  0  2  0  0  0  0  0  0  0  0  0
   -1.9450   28.8120   10.4950 C   0  0  0  0  0  0  0  0  0  0  0  0
   -3.0990   29.6090   10.4610 C   0  0  0  0  0  0  0  0  0  0  0  0
   -3.1340   30.7820    9.7010 C   0  0  0  0  0  0  0  0  0  0  0  0
   -2.0180   31.1700    8.9640 C   0  0  0  0  0  0  0  0  0  0  0  0
   -0.8650   30.3890    8.9850 C   0  0  0  0  0  0  0  0  0  0  0  0
   -0.8280   29.2170    9.7440 C   0  0  0  0  0  0  0  0  0  0  0  0
   -0.7060   27.5300   12.2860 C   0  0  0  0  0  0  0  0  0  0  0  0
   -0.5910   26.2230   12.9340 N   0  0  0  0  0  0  0  0  0  0  0  0
   -0.7820   26.1540   14.3090 C   0  0  0  0  0  0  0  0  0  0  0  0
   -0.0260   26.6930   15.1160 O   0  0  0  0  0  0  0  0  0  0  0  0
   -1.9600   25.3960   14.8080 C   0  0  0  0  0  0  0  0  0  0  0  0
   -3.2350   26.0500   15.0170 C   0  0  0  0  0  0  0  0  0  0  0  0
   -4.3050   25.3520   15.4190 C   0  0  0  0  0  0  0  0  0  0  0  0
   -4.2090   23.9310   15.6760 C   0  0  0  0  0  0  0  0  0  0  0  0
   -5.2310   23.1390   16.0440 C   0  0  0  0  0  0  0  0  0  0  0  0
   -6.4530   23.3270   16.2540 O   0  0  0  0  0  0  0  0  0  0  0  0
   -4.9630   21.8200   16.2600 N   0  0  0  0  0  0  0  0  0  0  0  0
   -3.7390   21.2150   16.1390 C   0  0  0  0  0  0  0  0  0  0  0  0
   -3.6140   19.5680   16.4610 S   0  0  0  0  0  0  0  0  0  0  0  0
   -2.6610   21.9780   15.7490 N   0  0  0  0  0  0  0  0  0  0  0  0
   -2.8870   23.2380   15.5370 C   0  0  0  0  0  0  0  0  0  0  0  0
   -1.7560   24.0980   15.0870 C   0  0  0  0  0  0  0  0  0  0  0  0
    1.1216   24.2252   13.1377 H   0  0  0  0  0  0  0  0  0  0  0  0
    0.7795   23.3904   11.5844 H   0  0  0  0  0  0  0  0  0  0  0  0
    1.6151   24.9805   11.5844 H   0  0  0  0  0  0  0  0  0  0  0  0
   -1.2917   24.3729   12.2969 H   0  0  0  0  0  0  0  0  0  0  0  0
    0.1524   26.0982   10.2003 H   0  0  0  0  0  0  0  0  0  0  0  0
   -0.9010   24.6390    9.9273 H   0  0  0  0  0  0  0  0  0  0  0  0
   -2.7931   27.4287   11.9013 H   0  0  0  0  0  0  0  0  0  0  0  0
   -3.9856   29.3079   11.0383 H   0  0  0  0  0  0  0  0  0  0  0  0
   -4.0444   31.3992    9.6852 H   0  0  0  0  0  0  0  0  0  0  0  0
   -2.0471   32.0926    8.3657 H   0  0  0  0  0  0  0  0  0  0  0  0
    0.0170   30.6953    8.4035 H   0  0  0  0  0  0  0  0  0  0  0  0
    0.0854   28.6042    9.7541 H   0  0  0  0  0  0  0  0  0  0  0  0
    0.2266   27.7537   11.7473 H   0  0  0  0  0  0  0  0  0  0  0  0
   -0.8864   28.2996   13.0509 H   0  0  0  0  0  0  0  0  0  0  0  0
   -3.3257   27.1325   14.8436 H   0  0  0  0  0  0  0  0  0  0  0  0
   -5.2684   25.8650   15.5555 H   0  0  0  0  0  0  0  0  0  0  0  0
   -5.7700   21.2820   16.5410 H   0  0  0  0  0  0  0  0  0  0  0  0
   -0.7491   23.6676   14.9828 H   0  0  0  0  0  0  0  0  0  0  0  0
  1  2  1  0
  2  3  1  0
  3  4  1  0
  4  5  1  0
  5  6  1  0
  6  7  2  0
  7  8  1  0
  8  9  2  0
  9 10  1  0
 10 11  2  0
  5 12  1  0
 12 13  1  0
 13 14  1  0
 14 15  2  0
 14 16  1  0
 16 17  1  0
 17 18  2  0
 18 19  1  0
 19 20  2  0
 20 21  1  0
 20 22  1  0
 22 23  1  0
 23 24  2  0
 23 25  1  0
 25 26  2  0
 26 27  1  0
 13  2  1  0
 27 16  2  0
 11  6  1  0
 26 19  1  0
  1 28  1  0
  1 29  1  0
  1 30  1  0
  2 31  1  1
  3 32  1  0
  3 33  1  0
  5 34  1  1
  7 35  1  0
  8 36  1  0
  9 37  1  0
 10 38  1  0
 11 39  1  0
 12 40  1  0
 12 41  1  0
 17 42  1  0
 18 43  1  0
 22 44  1  0
 27 45  1  0
M  CHG  1  21  -1
M  END
>  <vina_affinity>  (1) 
-8.789

$$$$
dec_C00424257
     RDKit          3D

 38 40  0  0  0  0  0  0  0  0999 V2000
    2.4880   27.1200   10.3690 C   0  0  0  0  0  0  0  0  0  0  0  0
    2.1760   28.2740    9.4650 C   0  0  0  0  0  0  0  0  0  0  0  0
    3.1350   28.6470    8.5880 N   0  0  0  0  0  0  0  0  0  0  0  0
    2.8580   29.6940    7.7750 C   0  0  0  0  0  0  0  0  0  0  0  0
    1.6540   30.3990    7.7640 C   0  0  0  0  0  0  0  0  0  0  0  0
    1.4800   31.5300    6.7960 C   0  0  0  0  0  0  0  0  0  0  0  0
    1.7430   32.7540    7.4610 O   0  0  0  0  0  0  0  0  0  0  0  0
    0.6730   30.0000    8.6850 C   0  0  0  0  0  0  0  0  0  0  0  0
   -0.6310   30.6430    8.8180 C   0  0  0  0  0  0  0  0  0  0  0  0
   -1.5460   30.2240    9.7100 C   0  0  0  0  0  0  0  0  0  0  0  0
   -2.8390   30.9770    9.7250 C   0  0  0  0  0  0  0  0  0  0  0  0
   -3.0200   31.8630   10.7380 N   0  0  0  0  0  0  0  0  0  0  0  0
   -3.7170   30.8180    8.8810 O   0  0  0  0  0  0  0  0  0  0  0  0
   -1.2470   29.0820   10.6050 C   0  0  0  0  0  0  0  0  0  0  0  0
   -2.0920   28.6350   11.4880 N   0  0  0  0  0  0  0  0  0  0  0  0
   -1.7010   27.5500   12.2820 C   0  0  0  0  0  0  0  0  0  0  0  0
   -1.8990   26.2400   11.8320 C   0  0  0  0  0  0  0  0  0  0  0  0
   -1.5200   25.1550   12.6270 C   0  0  0  0  0  0  0  0  0  0  0  0
   -0.9530   25.3810   13.8790 C   0  0  0  0  0  0  0  0  0  0  0  0
   -0.4840   24.0470   14.8570 Cl  0  0  0  0  0  0  0  0  0  0  0  0
   -0.7650   26.6820   14.3440 C   0  0  0  0  0  0  0  0  0  0  0  0
   -1.1450   27.7640   13.5470 C   0  0  0  0  0  0  0  0  0  0  0  0
    0.0010   28.4870   10.4670 O   0  0  0  0  0  0  0  0  0  0  0  0
    0.9510   28.9300    9.5320 C   0  0  0  0  0  0  0  0  0  0  0  0
    2.4011   27.4415   11.4174 H   0  0  0  0  0  0  0  0  0  0  0  0
    1.7789   26.3013   10.1766 H   0  0  0  0  0  0  0  0  0  0  0  0
    3.5130   26.7702   10.1766 H   0  0  0  0  0  0  0  0  0  0  0  0
    3.6407   30.0124    7.0707 H   0  0  0  0  0  0  0  0  0  0  0  0
    2.1813   31.4083    5.9573 H   0  0  0  0  0  0  0  0  0  0  0  0
    0.4502   31.5320    6.4094 H   0  0  0  0  0  0  0  0  0  0  0  0
    2.5520   33.1240    7.0700 H   0  0  0  0  0  0  0  0  0  0  0  0
   -0.8726   31.4970    8.1682 H   0  0  0  0  0  0  0  0  0  0  0  0
   -3.8880   32.3770   10.7870 H   0  0  0  0  0  0  0  0  0  0  0  0
   -2.3240   31.9940   11.4680 H   0  0  0  0  0  0  0  0  0  0  0  0
   -2.3555   26.0632   10.8470 H   0  0  0  0  0  0  0  0  0  0  0  0
   -1.6688   24.1268   12.2655 H   0  0  0  0  0  0  0  0  0  0  0  0
   -0.3192   26.8554   15.3346 H   0  0  0  0  0  0  0  0  0  0  0  0
   -1.0061   28.7907   13.9166 H   0  0  0  0  0  0  0  0  0  0  0  0
  1  2  1  0
  2  3  2  0
  3  4  1  0
  4  5  2  0
  5  6  1  0
  6  7  1  0
  5  8  1  0
  8  9  1  0
  9 10  2  0
 10 11  1  0
 11 12  1  0
 11 13  2  0
 10 14  1  0
 14 15  2  0
 15 16  1  0
 16 17  2  0
 17 18  1  0
 18 19  2  0
 19 20  1  0
 19 21  1  0
 21 22  2  0
 14 23  1  0
 23 24  1  0
 24  2  1  0
 24  8  2  0
 22 16  1  0
  1 25  1  0
  1 26  1  0
  1 27  1  0
  4 28  1  0
  6 29  1  0
  6 30  1  0
  7 31  1  0
  9 32  1  0
 12 33  1  0
 12 34  1  0
 17 35  1  0
 18 36  1  0
 21 37  1  0
 22 38  1  0
M  END
>  <vina_affinity>  (1) 
-8.915

$$$$
dec_C39916003
     RDKit          3D

 60 64  0  0  0  0  0  0  0  0999 V2000
   -2.2860   26.9560   15.8290 O   0  0  0  0  0  0  0  0  0  0  0  0
   -1.5200   27.0880   14.6340 C   0  0  0  0  0  0  0  0  0  0  0  0
   -0.6870   25.8370   14.3070 C   0  0  2  0  0  0  0  0  0  0  0  0
    0.0520   26.0170   13.0840 O   0  0  0  0  0  0  0  0  0  0  0  0
   -0.6320   25.5750   11.9020 C   0  0  1  0  0  0  0  0  0  0  0  0
    0.2950   26.1910   10.4430 S   0  0  0  0  0  0  0  0  0  0  0  0
   -0.4370   27.7410   10.2250 C   0  0  0  0  0  0  0  0  0  0  0  0
   -1.7180   27.9680   10.3900 N   0  0  0  0  0  0  0  0  0  0  0  0
   -1.8850   29.2940   10.0760 C   0  0  0  0  0  0  0  0  0  0  0  0
   -3.0540   30.0680   10.0820 C   0  0  0  0  0  0  0  0  0  0  0  0
   -2.9740   31.4150    9.7110 C   0  0  0  0  0  0  0  0  0  0  0  0
   -1.7530   31.9810    9.3380 C   0  0  0  0  0  0  0  0  0  0  0  0
   -0.5760   31.2240    9.3250 C   0  0  0  0  0  0  0  0  0  0  0  0
   -0.6750   29.8790    9.7040 C   0  0  0  0  0  0  0  0  0  0  0  0
    0.2440   28.8560    9.8070 N   0  0  0  0  0  0  0  0  0  0  0  0
    1.6710   28.9700    9.5520 C   0  0  0  0  0  0  0  0  0  0  0  0
    1.9740   29.6270    8.2070 C   0  0  0  0  0  0  0  0  0  0  0  0
    3.3920   29.7310    8.0600 O   0  0  0  0  0  0  0  0  0  0  0  0
    4.0340   28.7010    7.4310 C   0  0  0  0  0  0  0  0  0  0  0  0
    3.7300   28.5680    6.0770 C   0  0  0  0  0  0  0  0  0  0  0  0
    4.3200   27.5600    5.3110 C   0  0  0  0  0  0  0  0  0  0  0  0
    5.2310   26.6670    5.8900 C   0  0  0  0  0  0  0  0  0  0  0  0
    5.8330   25.6470    5.1350 C   0  0  0  0  0  0  0  0  0  0  0  0
    6.7380   24.7640    5.7260 C   0  0  0  0  0  0  0  0  0  0  0  0
    7.0520   24.8890    7.0760 C   0  0  0  0  0  0  0  0  0  0  0  0
    6.4600   25.8980    7.8390 C   0  0  0  0  0  0  0  0  0  0  0  0
    5.5460   26.7950    7.2610 C   0  0  0  0  0  0  0  0  0  0  0  0
    4.9430   27.8170    8.0180 C   0  0  0  0  0  0  0  0  0  0  0  0
   -0.8510   24.0350   11.9450 C   0  0  1  0  0  0  0  0  0  0  0  0
    0.1090   23.2550   11.2110 O   0  0  0  0  0  0  0  0  0  0  0  0
   -0.8130   23.5150   13.3900 C   0  0  2  0  0  0  0  0  0  0  0  0
   -1.5200   22.2650   13.4590 O   0  0  0  0  0  0  0  0  0  0  0  0
   -1.4720   24.5100   14.3400 C   0  0  2  0  0  0  0  0  0  0  0  0
   -2.8450   24.6740   13.9400 O   0  0  0  0  0  0  0  0  0  0  0  0
   -1.9120   26.1790   16.3000 H   0  0  0  0  0  0  0  0  0  0  0  0
   -2.2079   27.2786   13.7970 H   0  0  0  0  0  0  0  0  0  0  0  0
   -0.8156   27.9189   14.7873 H   0  0  0  0  0  0  0  0  0  0  0  0
    0.0335   25.7327   15.1316 H   0  0  0  0  0  0  0  0  0  0  0  0
   -1.6473   25.9928   11.8343 H   0  0  0  0  0  0  0  0  0  0  0  0
   -4.0174   29.6242   10.3733 H   0  0  0  0  0  0  0  0  0  0  0  0
   -3.8828   32.0347    9.7132 H   0  0  0  0  0  0  0  0  0  0  0  0
   -1.7157   33.0417    9.0490 H   0  0  0  0  0  0  0  0  0  0  0  0
    0.3867   31.6666    9.0295 H   0  0  0  0  0  0  0  0  0  0  0  0
    2.1248   29.5753   10.3505 H   0  0  0  0  0  0  0  0  0  0  0  0
    2.0887   27.9527    9.5287 H   0  0  0  0  0  0  0  0  0  0  0  0
    1.5610   29.0130    7.3931 H   0  0  0  0  0  0  0  0  0  0  0  0
    1.5173   30.6269    8.1656 H   0  0  0  0  0  0  0  0  0  0  0  0
    3.0188   29.2635    5.6074 H   0  0  0  0  0  0  0  0  0  0  0  0
    4.0673   27.4666    4.2445 H   0  0  0  0  0  0  0  0  0  0  0  0
    5.5888   25.5431    4.0675 H   0  0  0  0  0  0  0  0  0  0  0  0
    7.2032   23.9691    5.1246 H   0  0  0  0  0  0  0  0  0  0  0  0
    7.7659   24.1937    7.5418 H   0  0  0  0  0  0  0  0  0  0  0  0
    6.7124   25.9916    8.9055 H   0  0  0  0  0  0  0  0  0  0  0  0
    5.1904   27.9210    9.0848 H   0  0  0  0  0  0  0  0  0  0  0  0
   -1.8345   23.9065   11.4695 H   0  0  0  0  0  0  0  0  0  0  0  0
   -0.4250   22.5790   10.7370 H   0  0  0  0  0  0  0  0  0  0  0  0
    0.2371   23.3806   13.6888 H   0  0  0  0  0  0  0  0  0  0  0  0
   -1.2970   21.8080   12.6210 H   0  0  0  0  0  0  0  0  0  0  0  0
   -1.4576   24.1473   15.3784 H   0  0  0  0  0  0  0  0  0  0  0  0
   -2.9450   24.0830   13.1620 H   0  0  0  0  0  0  0  0  0  0  0  0
  1  2  1  0
  2  3  1  0
  3  4  1  0
  4  5  1  0
  5  6  1  0
  6  7  1  0
  7  8  2  0
  8  9  1  0
  9 10  2  0
 10 11  1  0
 11 12  2  0
 12 13  1  0
 13 14  2  0
 14 15  1  0
 15 16  1  0
 16 17  1  0
 17 18  1  0
 18 19  1  0
 19 20  2  0
 20 21  1  0
 21 22  2  0
 22 23  1  0
 23 24  2  0
 24 25  1  0
 25 26  2  0
 26 27  1  0
 27 28  2  0
  5 29  1  0
 29 30  1  0
 29 31  1  0
 31 32  1  0
 31 33  1  0
 33 34  1  0
 33  3  1  0
 15  7  1  0
 28 19  1  0
 14  9  1  0
 27 22  1  0
  1 35  1  0
  2 36  1  0
  2 37  1  0
  3 38  1  1
  5 39  1  1
 10 40  1  0
 11 41  1  0
 12 42  1  0
 13 43  1  0
 16 44  1  0
 16 45  1  0
 17 46  1  0
 17 47  1  0
 20 48  1  0
 21 49  1  0
 23 50  1  0
 24 51  1  0
 25 52  1  0
 26 53  1  0
 28 54  1  0
 29 55  1  6
 30 56  1  0
 31 57  1  1
 32 58  1  0
 33 59  1  1
 34 60  1  0
M  END
>  <vina_affinity>  (1) 
-9.279

$$$$
dec_C63767198
     RDKit          3D

 52 55  0  0  0  0  0  0  0  0999 V2000
    3.1090   29.8210    7.6610 N   0  0  0  0  0  0  0  0  0  0  0  0
    4.1440   28.9340    7.8030 C   0  0  0  0  0  0  0  0  0  0  0  0
    5.2300   29.3290    8.2140 O   0  0  0  0  0  0  0  0  0  0  0  0
    3.8220   27.4910    7.4050 C   0  0  1  0  0  0  0  0  0  0  0  0
    4.4770   27.0800    6.1110 C   0  0  0  0  0  0  0  0  0  0  0  0
    5.3780   26.0930    6.1920 C   0  0  0  0  0  0  0  0  0  0  0  0
    6.1570   25.5700    5.0240 C   0  0  0  0  0  0  0  0  0  0  0  0
    6.0530   26.4920    3.8020 C   0  0  0  0  0  0  0  0  0  0  0  0
    4.6210   26.9860    3.5940 C   0  0  0  0  0  0  0  0  0  0  0  0
    4.1020   27.7460    4.8200 C   0  0  0  0  0  0  0  0  0  0  0  0
    5.5960   25.4600    7.7850 S   0  0  0  0  0  0  0  0  0  0  0  0
    4.3200   26.5460    8.5220 C   0  0  2  0  0  0  0  0  0  0  0  0
    3.2860   25.6760    9.0440 N   0  0  0  0  0  0  0  0  0  0  0  0
    2.4760   26.0660   10.0820 C   0  0  0  0  0  0  0  0  0  0  0  0
    2.6030   27.1580   10.6340 O   0  0  0  0  0  0  0  0  0  0  0  0
    1.3910   25.0720   10.4580 C   0  0  0  0  0  0  0  0  0  0  0  0
   -0.1880   25.5670    9.7130 S   0  0  0  0  0  0  0  0  0  0  0  0
   -0.5370   26.9130   10.7800 C   0  0  0  0  0  0  0  0  0  0  0  0
   -0.5750   26.6900   12.0440 N   0  0  0  0  0  0  0  0  0  0  0  0
   -0.8020   27.7510   12.8740 C   0  0  0  0  0  0  0  0  0  0  0  0
   -1.2270   27.6150   14.0180 O   0  0  0  0  0  0  0  0  0  0  0  0
   -0.3990   29.1030   12.3700 C   0  0  0  0  0  0  0  0  0  0  0  0
   -0.6490   29.1870   10.8970 C   0  0  0  0  0  0  0  0  0  0  0  0
   -0.8000   30.5250   10.2660 C   0  0  0  0  0  0  0  0  0  0  0  0
   -0.0970   30.8610    9.1040 C   0  0  0  0  0  0  0  0  0  0  0  0
   -0.2750   32.1200    8.5240 C   0  0  0  0  0  0  0  0  0  0  0  0
   -1.1470   33.0420    9.1010 C   0  0  0  0  0  0  0  0  0  0  0  0
   -1.8510   32.7080   10.2580 C   0  0  0  0  0  0  0  0  0  0  0  0
   -1.6830   31.4500   10.8370 C   0  0  0  0  0  0  0  0  0  0  0  0
   -0.7230   28.1190   10.1710 N   0  0  0  0  0  0  0  0  0  0  0  0
    3.2640   30.7400    8.0560 H   0  0  0  0  0  0  0  0  0  0  0  0
    2.1440   29.4830    7.6710 H   0  0  0  0  0  0  0  0  0  0  0  0
    2.7329   27.4253    7.2651 H   0  0  0  0  0  0  0  0  0  0  0  0
    7.2146   25.4826    5.3135 H   0  0  0  0  0  0  0  0  0  0  0  0
    5.7370   24.5917    4.7472 H   0  0  0  0  0  0  0  0  0  0  0  0
    6.7124   27.3597    3.9516 H   0  0  0  0  0  0  0  0  0  0  0  0
    6.3541   25.9207    2.9115 H   0  0  0  0  0  0  0  0  0  0  0  0
    4.5979   27.6565    2.7223 H   0  0  0  0  0  0  0  0  0  0  0  0
    3.9751   26.1102    3.4335 H   0  0  0  0  0  0  0  0  0  0  0  0
    4.5255   28.7612    4.8109 H   0  0  0  0  0  0  0  0  0  0  0  0
    3.0038   27.7650    4.7608 H   0  0  0  0  0  0  0  0  0  0  0  0
    4.6857   27.1744    9.3474 H   0  0  0  0  0  0  0  0  0  0  0  0
    3.0450   24.8680    8.4820 H   0  0  0  0  0  0  0  0  0  0  0  0
    1.6694   24.0728   10.0918 H   0  0  0  0  0  0  0  0  0  0  0  0
    1.2835   25.0512   11.5525 H   0  0  0  0  0  0  0  0  0  0  0  0
   -0.9879   29.8759   12.8855 H   0  0  0  0  0  0  0  0  0  0  0  0
    0.6715   29.2613   12.5675 H   0  0  0  0  0  0  0  0  0  0  0  0
    0.5938   30.1364    8.6482 H   0  0  0  0  0  0  0  0  0  0  0  0
    0.2750   32.3844    7.6088 H   0  0  0  0  0  0  0  0  0  0  0  0
   -1.2800   34.0335    8.6436 H   0  0  0  0  0  0  0  0  0  0  0  0
   -2.5382   33.4362   10.7135 H   0  0  0  0  0  0  0  0  0  0  0  0
   -2.2454   31.1839   11.7442 H   0  0  0  0  0  0  0  0  0  0  0  0
  1  2  1  0
  2  3  2  0
  2  4  1  0
  4  5  1  0
  5  6  2  0
  6  7  1  0
  7  8  1  0
  8  9  1  0
  9 10  1  0
  6 11  1  0
 11 12  1  0
 12 13  1  0
 13 14  1  0
 14 15  2  0
 14 16  1  0
 16 17  1  0
 17 18  1  0
 18 19  2  0
 19 20  1  0
 20 21  2  0
 20 22  1  0
 22 23  1  0
 23 24  1  0
 24 25  2  0
 25 26  1  0
 26 27  2  0
 27 28  1  0
 28 29  2  0
 23 30  2  0
 12  4  1  0
 30 18  1  0
 10  5  1  0
 29 24  1  0
  1 31  1  0
  1 32  1  0
  4 33  1  6
  7 34  1  0
  7 35  1  0
  8 36  1  0
  8 37  1  0
  9 38  1  0
  9 39  1  0
 10 40  1  0
 10 41  1  0
 12 42  1  1
 13 43  1  0
 16 44  1  0
 16 45  1  0
 22 46  1  0
 22 47  1  0
 25 48  1  0
 26 49  1  0
 27 50  1  0
 28 51  1  0
 29 52  1  0
M  END
>  <vina_affinity>  (1) 
-8.640

$$$$
dec_C50871213
     RDKit          3D

 24 25  0  0  0  0  0  0  0  0999 V2000
   -2.2700   33.0690   10.8360 C   0  0  0  0  0  0  0  0  0  0  0  0
   -2.0130   31.7020   10.3460 C   0  0  0  0  0  0  0  0  0  0  0  0
   -2.8180   30.6160   10.0860 C   0  0  0  0  0  0  0  0  0  0  0  0
   -1.9580   29.5860    9.6290 C   0  0  0  0  0  0  0  0  0  0  0  0
   -0.6740   30.1010    9.6340 C   0  0  0  0  0  0  0  0  0  0  0  0
    0.6430   29.5700    9.2880 C   0  0  0  0  0  0  0  0  0  0  0  0
    1.3720   30.0680    8.2140 C   0  0  0  0  0  0  0  0  0  0  0  0
    2.6200   29.5150    7.9410 C   0  0  0  0  0  0  0  0  0  0  0  0
    3.1060   28.4830    8.7460 C   0  0  0  0  0  0  0  0  0  0  0  0
    4.3880   27.9120    8.4740 C   0  0  0  0  0  0  0  0  0  0  0  0
    5.4220   27.4510    8.2110 N   0  0  0  0  0  0  0  0  0  0  0  0
    2.3140   28.0350    9.8010 C   0  0  0  0  0  0  0  0  0  0  0  0
    2.7190   27.0370   10.6850 N   0  0  0  0  0  0  0  0  0  0  0  0
    1.1080   28.5680   10.0740 N   0  0  0  0  0  0  0  0  0  0  0  0
   -0.7140   31.3960   10.0760 O   0  0  0  0  0  0  0  0  0  0  0  0
   -2.2702   33.0702   11.9360 H   0  0  0  0  0  0  0  0  0  0  0  0
   -1.4831   33.7442   10.4687 H   0  0  0  0  0  0  0  0  0  0  0  0
   -3.2484   33.4123   10.4687 H   0  0  0  0  0  0  0  0  0  0  0  0
   -3.9097   30.5589   10.2083 H   0  0  0  0  0  0  0  0  0  0  0  0
   -2.2550   28.5706    9.3278 H   0  0  0  0  0  0  0  0  0  0  0  0
    0.9708   30.8823    7.5927 H   0  0  0  0  0  0  0  0  0  0  0  0
    3.2189   29.8884    7.0972 H   0  0  0  0  0  0  0  0  0  0  0  0
    2.2620   26.1470   10.5220 H   0  0  0  0  0  0  0  0  0  0  0  0
    2.5430   27.3840   11.6270 H   0  0  0  0  0  0  0  0  0  0  0  0
  1  2  1  0
  2  3  2  0
  3  4  1  0
  4  5  2  0
  5  6  1  0
  6  7  2  0
  7  8  1  0
  8  9  2  0
  9 10  1  0
 10 11  3  0
  9 12  1  0
 12 13  1  0
 12 14  2  0
  5 15  1  0
 15  2  1  0
 14  6  1  0
  1 16  1  0
  1 17  1  0
  1 18  1  0
  3 19  1  0
  4 20  1  0
  7 21  1  0
  8 22  1  0
 13 23  1  0
 13 24  1  0
M  END
>  <vina_affinity>  (1) 
-7.264

$$$$
dec_C59309563
     RDKit          3D

 47 49  0  0  0  0  0  0  0  0999 V2000
    4.4780   28.9230    8.1800 C   0  0  0  0  0  0  0  0  0  0  0  0
    4.2820   27.4870    7.7360 C   0  0  0  0  0  0  0  0  0  0  0  0
    3.7470   26.5600    8.4790 N   0  0  0  0  0  0  0  0  0  0  0  0
    3.3540   26.8790    9.7400 N   0  0  0  0  0  0  0  0  0  0  0  0
    2.3920   26.2040   10.4010 C   0  0  0  0  0  0  0  0  0  0  0  0
    1.1310   26.0300   10.0860 N   0  0  0  0  0  0  0  0  0  0  0  0
    0.6630   25.2740   11.1250 C   0  0  0  0  0  0  0  0  0  0  0  0
   -0.9990   24.7670   11.2300 S   0  0  0  0  0  0  0  0  0  0  0  0
   -1.7530   25.9810   10.1180 C   0  0  0  0  0  0  0  0  0  0  0  0
   -2.0900   27.2730   10.8350 C   0  0  0  0  0  0  0  0  0  0  0  0
   -2.7410   27.2700   11.8810 O   0  0  0  0  0  0  0  0  0  0  0  0
   -1.6670   28.5900   10.2620 C   0  0  0  0  0  0  0  0  0  0  0  0
   -2.3850   29.7310   10.6380 C   0  0  0  0  0  0  0  0  0  0  0  0
   -2.0370   30.9840   10.1320 C   0  0  0  0  0  0  0  0  0  0  0  0
   -0.9690   31.1090    9.2420 C   0  0  0  0  0  0  0  0  0  0  0  0
   -0.5600   32.8500    8.6010 Br  0  0  0  0  0  0  0  0  0  0  0  0
   -0.2380   29.9790    8.8440 C   0  0  0  0  0  0  0  0  0  0  0  0
    0.9200   30.0700    7.8860 C   0  0  0  0  0  0  0  0  0  0  0  0
   -0.6010   28.7200    9.3610 C   0  0  0  0  0  0  0  0  0  0  0  0
    1.5590   24.9520   12.0610 N   0  0  0  0  0  0  0  0  0  0  0  0
    2.6520   25.5750   11.5840 N   0  0  0  0  0  0  0  0  0  0  0  0
    4.7310   27.1170    6.3610 C   0  0  0  0  0  0  0  0  0  0  0  0
    4.1740   27.7770    5.2610 C   0  0  0  0  0  0  0  0  0  0  0  0
    4.5740   27.4410    3.9640 C   0  0  0  0  0  0  0  0  0  0  0  0
    5.5560   26.4710    3.7480 C   0  0  0  0  0  0  0  0  0  0  0  0
    5.8620   26.0560    2.4490 N   0  0  0  0  0  0  0  0  0  0  0  0
    6.0540   25.7670    4.8470 C   0  0  0  0  0  0  0  0  0  0  0  0
    5.6600   26.0960    6.1500 C   0  0  0  0  0  0  0  0  0  0  0  0
    4.4843   28.9694    9.2790 H   0  0  0  0  0  0  0  0  0  0  0  0
    5.4358   29.2994    7.7916 H   0  0  0  0  0  0  0  0  0  0  0  0
    3.6561   29.5423    7.7916 H   0  0  0  0  0  0  0  0  0  0  0  0
    3.8130   27.6160   10.2710 H   0  0  0  0  0  0  0  0  0  0  0  0
   -1.0491   26.2007    9.3018 H   0  0  0  0  0  0  0  0  0  0  0  0
   -2.6891   25.5525    9.7306 H   0  0  0  0  0  0  0  0  0  0  0  0
   -3.2293   29.6394   11.3371 H   0  0  0  0  0  0  0  0  0  0  0  0
   -2.6057   31.8754   10.4352 H   0  0  0  0  0  0  0  0  0  0  0  0
    1.8598   30.1439    8.4528 H   0  0  0  0  0  0  0  0  0  0  0  0
    0.9434   29.1709    7.2527 H   0  0  0  0  0  0  0  0  0  0  0  0
    0.8027   30.9617    7.2527 H   0  0  0  0  0  0  0  0  0  0  0  0
   -0.0396   27.8255    9.0531 H   0  0  0  0  0  0  0  0  0  0  0  0
    3.5340   25.5510   12.0800 H   0  0  0  0  0  0  0  0  0  0  0  0
    3.4195   28.5622    5.4165 H   0  0  0  0  0  0  0  0  0  0  0  0
    4.1102   27.9461    3.1039 H   0  0  0  0  0  0  0  0  0  0  0  0
    6.8270   26.2140    2.1780 H   0  0  0  0  0  0  0  0  0  0  0  0
    5.2060   26.3790    1.7450 H   0  0  0  0  0  0  0  0  0  0  0  0
    6.7651   24.9432    4.6868 H   0  0  0  0  0  0  0  0  0  0  0  0
    6.0821   25.5504    7.0068 H   0  0  0  0  0  0  0  0  0  0  0  0
  1  2  1  0
  2  3  2  0
  3  4  1  0
  4  5  1  0
  5  6  2  0
  6  7  1  0
  7  8  1  0
  8  9  1  0
  9 10  1  0
 10 11  2  0
 10 12  1  0
 12 13  2  0
 13 14  1  0
 14 15  2  0
 15 16  1  0
 15 17  1  0
 17 18  1  0
 17 19  2  0
  7 20  2  0
 20 21  1  0
  2 22  1  0
 22 23  2  0
 23 24  1  0
 24 25  2  0
 25 26  1  0
 25 27  1  0
 27 28  2  0
 21  5  1  0
 28 22  1  0
 19 12  1  0
  1 29  1  0
  1 30  1  0
  1 31  1  0
  4 32  1  0
  9 33  1  0
  9 34  1  0
 13 35  1  0
 14 36  1  0
 18 37  1  0
 18 38  1  0
 18 39  1  0
 19 40  1  0
 21 41  1  0
 23 42  1  0
 24 43  1  0
 26 44  1  0
 26 45  1  0
 27 46  1  0
 28 47  1  0
M  END
>  <vina_affinity>  (1) 
-8.558

$$$$
dec_C61681325
     RDKit          3D

 33 35  0  0  0  0  0  0  0  0999 V2000
   -0.2340   23.9270   12.1780 C   0  0  0  0  0  0  0  0  0  0  0  0
   -0.5780   25.2870   11.6300 C   0  0  0  0  0  0  0  0  0  0  0  0
   -0.8250   25.4290   10.2550 C   0  0  0  0  0  0  0  0  0  0  0  0
   -1.1450   26.6730    9.7110 C   0  0  0  0  0  0  0  0  0  0  0  0
   -1.2280   27.7940   10.5380 C   0  0  0  0  0  0  0  0  0  0  0  0
   -1.5670   29.0830    9.9820 C   0  0  0  0  0  0  0  0  0  0  0  0
   -0.8540   29.9860    9.1470 C   0  0  0  0  0  0  0  0  0  0  0  0
    0.6190   29.8590    8.5920 C   0  0  0  0  0  0  0  0  0  0  0  0
    1.1080   30.4430    7.4390 C   0  0  0  0  0  0  0  0  0  0  0  0
    2.4860   30.1340    7.2160 C   0  0  0  0  0  0  0  0  0  0  0  0
    2.9760   29.3260    8.2070 C   0  0  0  0  0  0  0  0  0  0  0  0
    4.5750   28.7140    8.3340 Cl  0  0  0  0  0  0  0  0  0  0  0  0
    1.8290   28.9330    9.3840 S   0  0  0  0  0  0  0  0  0  0  0  0
   -1.6060   31.0550    8.8450 N   0  0  0  0  0  0  0  0  0  0  0  0
   -2.8080   30.8720    9.5020 O   0  0  0  0  0  0  0  0  0  0  0  0
   -2.7840   29.6950   10.1770 C   0  0  0  0  0  0  0  0  0  0  0  0
   -3.8910   29.3570   10.8630 N   0  0  0  0  0  0  0  0  0  0  0  0
   -0.9770   27.6660   11.9090 C   0  0  0  0  0  0  0  0  0  0  0  0
   -0.6530   26.4190   12.4670 C   0  0  0  0  0  0  0  0  0  0  0  0
   -0.3950   26.3190   13.9460 C   0  0  0  0  0  0  0  0  0  0  0  0
   -0.2428   23.9617   13.2774 H   0  0  0  0  0  0  0  0  0  0  0  0
   -0.9747   23.1927   11.8284 H   0  0  0  0  0  0  0  0  0  0  0  0
    0.7667   23.6332   11.8284 H   0  0  0  0  0  0  0  0  0  0  0  0
   -0.7654   24.5483    9.5987 H   0  0  0  0  0  0  0  0  0  0  0  0
   -1.3317   26.7702    8.6313 H   0  0  0  0  0  0  0  0  0  0  0  0
    0.5055   31.0739    6.7689 H   0  0  0  0  0  0  0  0  0  0  0  0
    3.0750   30.4974    6.3610 H   0  0  0  0  0  0  0  0  0  0  0  0
   -3.9330   29.6130   11.8450 H   0  0  0  0  0  0  0  0  0  0  0  0
   -4.7910   29.3970   10.3930 H   0  0  0  0  0  0  0  0  0  0  0  0
   -1.0343   28.5530   12.5571 H   0  0  0  0  0  0  0  0  0  0  0  0
   -1.2826   26.6630   14.4971 H   0  0  0  0  0  0  0  0  0  0  0  0
   -0.1815   25.2730   14.2111 H   0  0  0  0  0  0  0  0  0  0  0  0
    0.4677   26.9479   14.2111 H   0  0  0  0  0  0  0  0  0  0  0  0
  1  2  1  0
  2  3  2  0
  3  4  1  0
  4  5  2  0
  5  6  1  0
  6  7  1  0
  7  8  1  0
  8  9  2  0
  9 10  1  0
 10 11  2  0
 11 12  1  0
 11 13  1  0
  7 14  2  0
 14 15  1  0
 15 16  1  0
 16 17  1  0
  5 18  1  0
 18 19  2  0
 19 20  1  0
 19  2  1  0
 16  6  2  0
 13  8  1  0
  1 21  1  0
  1 22  1  0
  1 23  1  0
  3 24  1  0
  4 25  1  0
  9 26  1  0
 10 27  1  0
 17 28  1  0
 17 29  1  0
 18 30  1  0
 20 31  1  0
 20 32  1  0
 20 33  1  0
M  END
>  <vina_affinity>  (1) 
-7.825

$$$$
dec_C40675330
     RDKit          3D

 35 36  0  0  0  0  0  0  0  0999 V2000
   -0.4030   25.3330   12.5590 C   0  0  0  0  0  0  0  0  0  0  0  0
   -1.1420   26.3840   11.7230 C   0  0  0  0  0  0  0  0  0  0  0  0
   -1.4870   25.8930   10.3120 C   0  0  0  0  0  0  0  0  0  0  0  0
   -0.3920   27.6620   11.6590 N   0  0  0  0  0  0  0  0  0  0  0  0
    0.5260   28.1410   10.7380 C   0  0  0  0  0  0  0  0  0  0  0  0
    1.7500   27.5020   10.4850 C   0  0  0  0  0  0  0  0  0  0  0  0
    2.6430   27.9550    9.5000 C   0  0  0  0  0  0  0  0  0  0  0  0
    2.3280   29.0530    8.7070 C   0  0  0  0  0  0  0  0  0  0  0  0
    1.1110   29.6930    8.8900 C   0  0  0  0  0  0  0  0  0  0  0  0
    0.2290   29.2360    9.8860 C   0  0  0  0  0  0  0  0  0  0  0  0
   -1.0330   29.9610   10.0120 N   0  0  0  0  0  0  0  0  0  0  0  0
   -0.9770   31.1420   10.3860 O   0  0  0  0  0  0  0  0  0  0  0  0
   -2.0780   29.3400    9.7670 O   0  0  0  0  0  0  0  0  0  0  0  0
    3.1250   29.5360    7.7120 O   0  0  0  0  0  0  0  0  0  0  0  0
    4.4320   28.9870    7.6560 C   0  0  0  0  0  0  0  0  0  0  0  0
    4.7680   27.6890    8.3880 C   0  0  0  0  0  0  0  0  0  0  0  0
    5.8130   27.0680    8.2110 O   0  0  0  0  0  0  0  0  0  0  0  0
    3.8440   27.2740    9.3040 N   0  0  0  0  0  0  0  0  0  0  0  0
   -2.4920   26.6920   12.4680 C   0  0  0  0  0  0  0  0  0  0  0  0
   -3.3010   27.6680   11.9610 N   0  0  0  0  0  0  0  0  0  0  0  0
   -2.8560   26.0710   13.4660 O   0  0  0  0  0  0  0  0  0  0  0  0
   -0.5516   25.5443   13.6282 H   0  0  0  0  0  0  0  0  0  0  0  0
   -0.7983   24.3336   12.3243 H   0  0  0  0  0  0  0  0  0  0  0  0
    0.6711   25.3668   12.3243 H   0  0  0  0  0  0  0  0  0  0  0  0
   -2.1182   24.9947   10.3805 H   0  0  0  0  0  0  0  0  0  0  0  0
   -2.0300   26.6824    9.7716 H   0  0  0  0  0  0  0  0  0  0  0  0
   -0.5603   25.6497    9.7716 H   0  0  0  0  0  0  0  0  0  0  0  0
   -0.2430   28.0160   12.6190 H   0  0  0  0  0  0  0  0  0  0  0  0
    2.0191   26.6159   11.0786 H   0  0  0  0  0  0  0  0  0  0  0  0
    0.8374   30.5524    8.2603 H   0  0  0  0  0  0  0  0  0  0  0  0
    4.6540   28.8138    6.5927 H   0  0  0  0  0  0  0  0  0  0  0  0
    5.0333   29.7337    8.1954 H   0  0  0  0  0  0  0  0  0  0  0  0
    4.0690   26.4390    9.8290 H   0  0  0  0  0  0  0  0  0  0  0  0
   -4.1510   27.8660   12.4730 H   0  0  0  0  0  0  0  0  0  0  0  0
   -3.0470   28.2810   11.2000 H   0  0  0  0  0  0  0  0  0  0  0  0
  1  2  1  0
  2  3  1  0
  2  4  1  0
  4  5  1  0
  5  6  2  0
  6  7  1  0
  7  8  2  0
  8  9  1  0
  9 10  2  0
 10 11  1  0
 11 12  2  0
 11 13  1  0
  8 14  1  0
 14 15  1  0
 15 16  1  0
 16 17  2  0
 16 18  1  0
  2 19  1  0
 19 20  1  0
 19 21  2  0
 10  5  1  0
 18  7  1  0
  1 22  1  0
  1 23  1  0
  1 24  1  0
  3 25  1  0
  3 26  1  0
  3 27  1  0
  4 28  1  0
  6 29  1  0
  9 30  1  0
 15 31  1  0
 15 32  1  0
 18 33  1  0
 20 34  1  0
 20 35  1  0
M  CHG  2  11   1  13  -1
M  END
>  <vina_affinity>  (1) 
-7.168

$$$$
dec_C49977356
     RDKit          3D

 44 45  0  0  0  0  0  0  0  0999 V2000
   -4.3290   25.5700   14.4060 C   0  0  0  0  0  0  0  0  0  0  0  0
   -3.0050   25.5050   15.1530 C   0  0  0  0  0  0  0  0  0  0  0  0
   -1.8930   26.3170   14.4890 C   0  0  0  0  0  0  0  0  0  0  0  0
   -1.4450   25.7770   13.2140 N   0  0  0  0  0  0  0  0  0  0  0  0
   -0.8940   24.5250   13.0650 C   0  0  0  0  0  0  0  0  0  0  0  0
   -0.5870   24.3660   11.7430 C   0  0  0  0  0  0  0  0  0  0  0  0
    0.0020   23.2870   11.2120 N   0  0  0  0  0  0  0  0  0  0  0  0
   -0.9910   25.5210   11.0550 C   0  0  0  0  0  0  0  0  0  0  0  0
   -1.5830   26.3810   11.9740 C   0  0  0  0  0  0  0  0  0  0  0  0
   -2.1700   27.6980   11.7530 C   0  0  0  0  0  0  0  0  0  0  0  0
   -3.3840   27.8000   11.5870 O   0  0  0  0  0  0  0  0  0  0  0  0
   -1.2940   28.8050   11.7620 N   0  0  0  0  0  0  0  0  0  0  0  0
   -0.7710   29.3610   13.0120 C   0  0  0  0  0  0  0  0  0  0  0  0
   -0.6530   29.2560   10.5570 C   0  0  0  0  0  0  0  0  0  0  0  0
    0.6400   28.8030   10.2470 C   0  0  0  0  0  0  0  0  0  0  0  0
    1.3270   29.2710    9.1230 C   0  0  0  0  0  0  0  0  0  0  0  0
    0.7330   30.1990    8.2700 C   0  0  0  0  0  0  0  0  0  0  0  0
    1.4800   30.7350    7.0850 C   0  0  0  0  0  0  0  0  0  0  0  0
   -0.5550   30.6560    8.5650 C   0  0  0  0  0  0  0  0  0  0  0  0
   -1.2690   30.1800    9.6830 C   0  0  0  0  0  0  0  0  0  0  0  0
   -2.6830   30.6650    9.8590 C   0  0  0  0  0  0  0  0  0  0  0  0
   -5.1566   25.6106   15.1295 H   0  0  0  0  0  0  0  0  0  0  0  0
   -4.3497   26.4702   13.7742 H   0  0  0  0  0  0  0  0  0  0  0  0
   -4.4378   24.6761   13.7742 H   0  0  0  0  0  0  0  0  0  0  0  0
   -3.1595   25.8924   16.1708 H   0  0  0  0  0  0  0  0  0  0  0  0
   -2.6834   24.4531   15.1530 H   0  0  0  0  0  0  0  0  0  0  0  0
   -2.2644   27.3386   14.3204 H   0  0  0  0  0  0  0  0  0  0  0  0
   -1.0284   26.2868   15.1684 H   0  0  0  0  0  0  0  0  0  0  0  0
   -0.7305   23.7869   13.8641 H   0  0  0  0  0  0  0  0  0  0  0  0
   -0.1770   23.0250   10.2470 H   0  0  0  0  0  0  0  0  0  0  0  0
    0.9210   22.9980   11.5330 H   0  0  0  0  0  0  0  0  0  0  0  0
   -0.8622   25.7121    9.9794 H   0  0  0  0  0  0  0  0  0  0  0  0
   -1.2465   28.8555   13.8654 H   0  0  0  0  0  0  0  0  0  0  0  0
    0.3174   29.2072   13.0547 H   0  0  0  0  0  0  0  0  0  0  0  0
   -0.9910   30.4379   13.0547 H   0  0  0  0  0  0  0  0  0  0  0  0
    1.1226   28.0637   10.9031 H   0  0  0  0  0  0  0  0  0  0  0  0
    2.3422   28.9046    8.9108 H   0  0  0  0  0  0  0  0  0  0  0  0
    2.3284   31.3437    7.4310 H   0  0  0  0  0  0  0  0  0  0  0  0
    1.8534   29.8975    6.4774 H   0  0  0  0  0  0  0  0  0  0  0  0
    0.8061   31.3569    6.4774 H   0  0  0  0  0  0  0  0  0  0  0  0
   -1.0223   31.4050    7.9088 H   0  0  0  0  0  0  0  0  0  0  0  0
   -2.9127   30.7438   10.9319 H   0  0  0  0  0  0  0  0  0  0  0  0
   -2.7934   31.6524    9.3869 H   0  0  0  0  0  0  0  0  0  0  0  0
   -3.3762   29.9533    9.3869 H   0  0  0  0  0  0  0  0  0  0  0  0
  1  2  1  0
  2  3  1  0
  3  4  1  0
  4  5  1  0
  5  6  2  0
  6  7  1  0
  6  8  1  0
  8  9  2  0
  9 10  1  0
 10 11  2  0
 10 12  1  0
 12 13  1  0
 12 14  1  0
 14 15  2  0
 15 16  1  0
 16 17  2  0
 17 18  1  0
 17 19  1  0
 19 20  2  0
 20 21  1  0
  9  4  1  0
 20 14  1  0
  1 22  1  0
  1 23  1  0
  1 24  1  0
  2 25  1  0
  2 26  1  0
  3 27  1  0
  3 28  1  0
  5 29  1  0
  7 30  1  0
  7 31  1  0
  8 32  1  0
 13 33  1  0
 13 34  1  0
 13 35  1  0
 15 36  1  0
 16 37  1  0
 18 38  1  0
 18 39  1  0
 18 40  1  0
 19 41  1  0
 21 42  1  0
 21 43  1  0
 21 44  1  0
M  END
>  <vina_affinity>  (1) 
-7.036

$$$$
dec_C23125436
     RDKit          3D

 34 37  0  0  0  0  0  0  0  0999 V2000
   -0.3960   23.6580   14.7230 Cl  0  0  0  0  0  0  0  0  0  0  0  0
   -0.9190   24.9440   13.7060 C   0  0  0  0  0  0  0  0  0  0  0  0
   -2.2370   25.3900   13.7820 C   0  0  0  0  0  0  0  0  0  0  0  0
   -2.6610   26.4320   12.9590 C   0  0  0  0  0  0  0  0  0  0  0  0
   -1.7650   27.0240   12.0640 C   0  0  0  0  0  0  0  0  0  0  0  0
   -0.4340   26.5800   11.9820 C   0  0  0  0  0  0  0  0  0  0  0  0
    0.5080   27.1920   11.0510 C   0  0  0  0  0  0  0  0  0  0  0  0
    1.7550   26.7440   10.8430 N   0  0  0  0  0  0  0  0  0  0  0  0
    2.2640   27.6200    9.8890 O   0  0  0  0  0  0  0  0  0  0  0  0
    1.2800   28.5280    9.6100 C   0  0  0  0  0  0  0  0  0  0  0  0
    1.4200   29.6930    8.5960 C   0  0  0  0  0  0  0  0  0  0  0  0
    2.4480   29.8140    7.6900 C   0  0  0  0  0  0  0  0  0  0  0  0
    2.2180   30.9820    7.0310 N   0  0  0  0  0  0  0  0  0  0  0  0
    1.1190   31.6270    7.4470 N   0  0  0  0  0  0  0  0  0  0  0  0
    0.5950   30.8320    8.3980 C   0  0  0  0  0  0  0  0  0  0  0  0
   -0.6470   31.2030    9.0670 C   0  0  0  0  0  0  0  0  0  0  0  0
   -1.7910   30.4020    8.9610 C   0  0  0  0  0  0  0  0  0  0  0  0
   -2.9720   30.7680    9.6110 C   0  0  0  0  0  0  0  0  0  0  0  0
   -3.0210   31.9410   10.3640 C   0  0  0  0  0  0  0  0  0  0  0  0
   -1.8930   32.7540   10.4610 C   0  0  0  0  0  0  0  0  0  0  0  0
   -0.7110   32.3890    9.8120 C   0  0  0  0  0  0  0  0  0  0  0  0
    0.1820   28.2990   10.3010 N   0  0  0  0  0  0  0  0  0  0  0  0
   -0.0200   25.5310   12.8160 C   0  0  0  0  0  0  0  0  0  0  0  0
   -2.9391   24.9222   14.4878 H   0  0  0  0  0  0  0  0  0  0  0  0
   -3.7002   26.7884   13.0137 H   0  0  0  0  0  0  0  0  0  0  0  0
   -2.1053   27.8460   11.4171 H   0  0  0  0  0  0  0  0  0  0  0  0
    3.2812   29.1135    7.5315 H   0  0  0  0  0  0  0  0  0  0  0  0
    2.7710   31.4060    6.2920 H   0  0  0  0  0  0  0  0  0  0  0  0
   -1.7593   29.4796    8.3626 H   0  0  0  0  0  0  0  0  0  0  0  0
   -3.8645   30.1303    9.5289 H   0  0  0  0  0  0  0  0  0  0  0  0
   -3.9496   32.2244   10.8812 H   0  0  0  0  0  0  0  0  0  0  0  0
   -1.9335   33.6830   11.0486 H   0  0  0  0  0  0  0  0  0  0  0  0
    0.1753   33.0363    9.8860 H   0  0  0  0  0  0  0  0  0  0  0  0
    1.0179   25.1699   12.7679 H   0  0  0  0  0  0  0  0  0  0  0  0
  1  2  1  0
  2  3  2  0
  3  4  1  0
  4  5  2  0
  5  6  1  0
  6  7  1  0
  7  8  2  0
  8  9  1  0
  9 10  1  0
 10 11  1  0
 11 12  2  0
 12 13  1  0
 13 14  1  0
 14 15  2  0
 15 16  1  0
 16 17  2  0
 17 18  1  0
 18 19  2  0
 19 20  1  0
 20 21  2  0
 10 22  2  0
  6 23  2  0
 23  2  1  0
 22  7  1  0
 15 11  1  0
 21 16  1  0
  3 24  1  0
  4 25  1  0
  5 26  1  0
 12 27  1  0
 13 28  1  0
 17 29  1  0
 18 30  1  0
 19 31  1  0
 20 32  1  0
 21 33  1  0
 23 34  1  0
M  END
>  <vina_affinity>  (1) 
-8.734

$$$$
dec_C59310289
     RDKit          3D

 55 60  0  0  0  0  0  0  0  0999 V2000
   -2.7620   21.4430   17.2180 O   0  0  0  0  0  0  0  0  0  0  0  0
   -2.9610   21.7920   16.0560 C   0  0  0  0  0  0  0  0  0  0  0  0
   -1.7860   21.8730   15.0850 C   0  0  0  0  0  0  0  0  0  0  0  0
   -0.7710   23.3680   15.2560 S   0  0  0  0  0  0  0  0  0  0  0  0
   -1.9080   24.5870   14.7500 C   0  0  0  0  0  0  0  0  0  0  0  0
   -2.8260   25.1010   15.5720 N   0  0  0  0  0  0  0  0  0  0  0  0
   -3.4670   25.9430   14.7430 N   0  0  0  0  0  0  0  0  0  0  0  0
   -2.9250   25.9200   13.4910 C   0  0  0  0  0  0  0  0  0  0  0  0
   -3.4110   26.6950   12.5020 N   0  0  0  0  0  0  0  0  0  0  0  0
   -2.6420   27.1770   11.4880 N   0  0  0  0  0  0  0  0  0  0  0  0
   -2.3220   28.4320   11.5910 C   0  0  0  0  0  0  0  0  0  0  0  0
   -1.4790   29.1170   10.5770 C   0  0  0  0  0  0  0  0  0  0  0  0
   -2.0350   30.2260    9.9220 C   0  0  0  0  0  0  0  0  0  0  0  0
   -1.3110   30.9070    8.9510 C   0  0  0  0  0  0  0  0  0  0  0  0
   -0.0190   30.4970    8.6130 C   0  0  0  0  0  0  0  0  0  0  0  0
    0.7020   31.1850    7.6300 C   0  0  0  0  0  0  0  0  0  0  0  0
    1.9930   30.7900    7.2820 C   0  0  0  0  0  0  0  0  0  0  0  0
    2.5930   29.6930    7.9090 C   0  0  0  0  0  0  0  0  0  0  0  0
    3.8920   29.2900    7.5650 C   0  0  0  0  0  0  0  0  0  0  0  0
    4.4860   28.1980    8.1930 C   0  0  0  0  0  0  0  0  0  0  0  0
    3.7880   27.4970    9.1750 C   0  0  0  0  0  0  0  0  0  0  0  0
    2.4890   27.8800    9.5380 C   0  0  0  0  0  0  0  0  0  0  0  0
    1.7820   27.1870   10.5220 C   0  0  0  0  0  0  0  0  0  0  0  0
    0.4870   27.5740   10.8780 C   0  0  0  0  0  0  0  0  0  0  0  0
   -0.1630   28.6720   10.2650 C   0  0  0  0  0  0  0  0  0  0  0  0
    0.5600   29.3800    9.2660 C   0  0  0  0  0  0  0  0  0  0  0  0
    1.8790   28.9850    8.9050 C   0  0  0  0  0  0  0  0  0  0  0  0
   -1.9310   25.0650   13.4680 N   0  0  0  0  0  0  0  0  0  0  0  0
   -4.2010   22.0010   15.4890 N   0  0  0  0  0  0  0  0  0  0  0  0
   -5.4660   22.0480   16.1170 C   0  0  0  0  0  0  0  0  0  0  0  0
   -5.9060   23.0110   17.0280 C   0  0  0  0  0  0  0  0  0  0  0  0
   -5.1630   24.0740   17.3610 F   0  0  0  0  0  0  0  0  0  0  0  0
   -7.1870   22.9440   17.5850 C   0  0  0  0  0  0  0  0  0  0  0  0
   -8.0610   21.9170   17.2310 C   0  0  0  0  0  0  0  0  0  0  0  0
   -7.6520   20.9630   16.3060 C   0  0  0  0  0  0  0  0  0  0  0  0
   -6.3720   21.0410   15.7590 C   0  0  0  0  0  0  0  0  0  0  0  0
   -5.9990   20.1070   14.8680 F   0  0  0  0  0  0  0  0  0  0  0  0
   -1.1405   20.9983   15.2528 H   0  0  0  0  0  0  0  0  0  0  0  0
   -2.2171   21.9012   14.0734 H   0  0  0  0  0  0  0  0  0  0  0  0
   -4.2490   26.5030   15.0600 H   0  0  0  0  0  0  0  0  0  0  0  0
   -4.4020   26.9270   12.5650 H   0  0  0  0  0  0  0  0  0  0  0  0
   -2.6866   29.0055   12.4560 H   0  0  0  0  0  0  0  0  0  0  0  0
   -3.0515   30.5589   10.1789 H   0  0  0  0  0  0  0  0  0  0  0  0
   -1.7584   31.7751    8.4448 H   0  0  0  0  0  0  0  0  0  0  0  0
    0.2440   32.0486    7.1255 H   0  0  0  0  0  0  0  0  0  0  0  0
    2.5439   31.3452    6.5085 H   0  0  0  0  0  0  0  0  0  0  0  0
    4.4467   29.8418    6.7918 H   0  0  0  0  0  0  0  0  0  0  0  0
    5.5044   27.8892    7.9145 H   0  0  0  0  0  0  0  0  0  0  0  0
    4.2605   26.6356    9.6696 H   0  0  0  0  0  0  0  0  0  0  0  0
    2.2494   26.3264   11.0230 H   0  0  0  0  0  0  0  0  0  0  0  0
   -0.0432   27.0082   11.6582 H   0  0  0  0  0  0  0  0  0  0  0  0
   -4.2210   22.0820   14.4740 H   0  0  0  0  0  0  0  0  0  0  0  0
   -7.5078   23.7080   18.3085 H   0  0  0  0  0  0  0  0  0  0  0  0
   -9.0641   21.8621   17.6791 H   0  0  0  0  0  0  0  0  0  0  0  0
   -8.3334   20.1525   16.0079 H   0  0  0  0  0  0  0  0  0  0  0  0
  1  2  2  0
  2  3  1  0
  3  4  1  0
  4  5  1  0
  5  6  2  0
  6  7  1  0
  7  8  1  0
  8  9  1  0
  9 10  1  0
 10 11  2  0
 11 12  1  0
 12 13  2  0
 13 14  1  0
 14 15  2  0
 15 16  1  0
 16 17  2  0
 17 18  1  0
 18 19  2  0
 19 20  1  0
 20 21  2  0
 21 22  1  0
 22 23  2  0
 23 24  1  0
 24 25  2  0
 25 26  1  0
 26 27  2  0
  8 28  2  0
  2 29  1  0
 29 30  1  0
 30 31  2  0
 31 32  1  0
 31 33  1  0
 33 34  2  0
 34 35  1  0
 35 36  2  0
 36 37  1  0
 28  5  1  0
 36 30  1  0
 25 12  1  0
 26 15  1  0
 27 18  1  0
 27 22  1  0
  3 38  1  0
  3 39  1  0
  7 40  1  0
  9 41  1  0
 11 42  1  0
 13 43  1  0
 14 44  1  0
 16 45  1  0
 17 46  1  0
 19 47  1  0
 20 48  1  0
 21 49  1  0
 23 50  1  0
 24 51  1  0
 29 52  1  0
 33 53  1  0
 34 54  1  0
 35 55  1  0
M  END
>  <vina_affinity>  (1) 
-11.160

$$$$
dec_C01125891
     RDKit          3D

 39 42  0  0  0  0  0  0  0  0999 V2000
   -0.7700   18.3230   11.1840 C   0  0  0  0  0  0  0  0  0  0  0  0
   -0.4520   19.1840   12.2920 N   0  0  0  0  0  0  0  0  0  0  0  0
   -1.4030   19.7630   13.1420 C   0  0  0  0  0  0  0  0  0  0  0  0
   -2.6160   19.6230   13.0810 O   0  0  0  0  0  0  0  0  0  0  0  0
   -0.6230   20.6000   14.2020 C   0  0  2  0  0  0  0  0  0  0  0  0
   -0.9620   20.0430   15.5710 C   0  0  0  0  0  0  0  0  0  0  0  0
   -0.6600   18.6740   15.8400 C   0  0  0  0  0  0  0  0  0  0  0  0
   -0.4260   17.5580   16.0530 N   0  0  0  0  0  0  0  0  0  0  0  0
   -1.5490   20.8090   16.5150 C   0  0  0  0  0  0  0  0  0  0  0  0
   -1.8950   20.4010   17.7830 N   0  0  0  0  0  0  0  0  0  0  0  0
   -1.8720   22.1390   16.2750 O   0  0  0  0  0  0  0  0  0  0  0  0
   -1.6140   22.7070   15.0440 C   0  0  0  0  0  0  0  0  0  0  0  0
   -1.0300   22.0460   14.0350 C   0  0  0  0  0  0  0  0  0  0  0  0
   -0.7570   22.6210   12.8030 O   0  0  0  0  0  0  0  0  0  0  0  0
   -1.1280   23.9370   12.5740 C   0  0  0  0  0  0  0  0  0  0  0  0
   -0.7940   24.4430   11.2030 C   0  0  0  0  0  0  0  0  0  0  0  0
   -1.8950   25.1930   10.7120 O   0  0  0  0  0  0  0  0  0  0  0  0
   -1.7150   24.6980   13.5080 C   0  0  0  0  0  0  0  0  0  0  0  0
   -1.9970   24.1240   14.8360 C   0  0  0  0  0  0  0  0  0  0  0  0
   -2.5120   24.8090   15.7110 O   0  0  0  0  0  0  0  0  0  0  0  0
    0.8180   20.3580   13.7920 C   0  0  0  0  0  0  0  0  0  0  0  0
    1.9900   20.8330   14.3660 C   0  0  0  0  0  0  0  0  0  0  0  0
    3.2040   20.4530   13.7870 C   0  0  0  0  0  0  0  0  0  0  0  0
    3.2300   19.6170   12.6570 C   0  0  0  0  0  0  0  0  0  0  0  0
    2.0450   19.1450   12.0870 C   0  0  0  0  0  0  0  0  0  0  0  0
    0.8520   19.5270   12.6690 C   0  0  0  0  0  0  0  0  0  0  0  0
   -1.1277   17.3544   11.5632 H   0  0  0  0  0  0  0  0  0  0  0  0
   -1.5552   18.7893   10.5708 H   0  0  0  0  0  0  0  0  0  0  0  0
    0.1298   18.1670   10.5708 H   0  0  0  0  0  0  0  0  0  0  0  0
   -1.1780   20.5300   18.4940 H   0  0  0  0  0  0  0  0  0  0  0  0
   -2.2760   19.4560   17.7810 H   0  0  0  0  0  0  0  0  0  0  0  0
    0.0979   25.0849   11.2528 H   0  0  0  0  0  0  0  0  0  0  0  0
   -0.5890   23.5962   10.5315 H   0  0  0  0  0  0  0  0  0  0  0  0
   -1.9050   26.0350   11.1960 H   0  0  0  0  0  0  0  0  0  0  0  0
   -1.9838   25.7412   13.2856 H   0  0  0  0  0  0  0  0  0  0  0  0
    1.9637   21.4882   15.2492 H   0  0  0  0  0  0  0  0  0  0  0  0
    4.1493   20.8119   14.2201 H   0  0  0  0  0  0  0  0  0  0  0  0
    4.1961   19.3307   12.2158 H   0  0  0  0  0  0  0  0  0  0  0  0
    2.0615   18.4903   11.2032 H   0  0  0  0  0  0  0  0  0  0  0  0
  1  2  1  0
  2  3  1  0
  3  4  2  0
  5  3  1  6
  5  6  1  0
  6  7  1  0
  7  8  3  0
  6  9  2  0
  9 10  1  0
  9 11  1  0
 11 12  1  0
 12 13  2  0
 13 14  1  0
 14 15  1  0
 15 16  1  0
 16 17  1  0
 15 18  2  0
 18 19  1  0
 19 20  2  0
  5 21  1  0
 21 22  2  0
 22 23  1  0
 23 24  2  0
 24 25  1  0
 25 26  2  0
 26  2  1  0
 13  5  1  0
 26 21  1  0
 19 12  1  0
  1 27  1  0
  1 28  1  0
  1 29  1  0
 10 30  1  0
 10 31  1  0
 16 32  1  0
 16 33  1  0
 17 34  1  0
 18 35  1  0
 22 36  1  0
 23 37  1  0
 24 38  1  0
 25 39  1  0
M  END
>  <vina_affinity>  (1) 
-6.201

$$$$
dec_C12430268
     RDKit          3D

 51 54  0  0  0  0  0  0  0  0999 V2000
   -0.3960   26.6930   14.4830 C   0  0  0  0  0  0  0  0  0  0  0  0
   -1.8590   26.3370   14.4770 C   0  0  0  0  0  0  0  0  0  0  0  0
   -2.4620   25.9020   15.6680 C   0  0  0  0  0  0  0  0  0  0  0  0
   -3.8070   25.5250   15.6910 C   0  0  0  0  0  0  0  0  0  0  0  0
   -4.5660   25.5670   14.5260 C   0  0  0  0  0  0  0  0  0  0  0  0
   -3.9850   26.0050   13.3360 C   0  0  0  0  0  0  0  0  0  0  0  0
   -2.6410   26.4050   13.3070 C   0  0  0  0  0  0  0  0  0  0  0  0
   -2.1020   26.9260   12.0580 C   0  0  0  0  0  0  0  0  0  0  0  0
   -2.1580   28.2260   11.7650 N   0  0  0  0  0  0  0  0  0  0  0  0
   -1.5270   28.3700   10.5760 N   0  0  0  0  0  0  0  0  0  0  0  0
   -1.3220   29.6600   10.0200 C   0  0  0  0  0  0  0  0  0  0  0  0
   -2.2870   30.6610   10.2310 C   0  0  0  0  0  0  0  0  0  0  0  0
   -2.1010   31.9390    9.6960 C   0  0  0  0  0  0  0  0  0  0  0  0
   -0.9550   32.2170    8.9610 C   0  0  0  0  0  0  0  0  0  0  0  0
   -0.7790   33.4410    8.4500 F   0  0  0  0  0  0  0  0  0  0  0  0
    0.0140   31.2450    8.7540 C   0  0  0  0  0  0  0  0  0  0  0  0
   -0.1710   29.9720    9.2850 C   0  0  0  0  0  0  0  0  0  0  0  0
    0.8090   29.0760    9.0970 F   0  0  0  0  0  0  0  0  0  0  0  0
   -1.1390   27.1390   10.0820 C   0  0  0  0  0  0  0  0  0  0  0  0
   -1.4380   26.1920   11.0410 C   0  0  0  0  0  0  0  0  0  0  0  0
   -1.1430   24.7400   11.0290 C   0  0  0  0  0  0  0  0  0  0  0  0
    0.1250   24.3730   11.7650 N   0  0  1  0  0  0  0  0  0  0  0  0
   -0.1250   23.3620   12.8400 C   0  0  0  0  0  0  0  0  0  0  0  0
    1.2840   23.9780   10.8520 C   0  0  0  0  0  0  0  0  0  0  0  0
    2.1060   25.1830   10.4660 C   0  0  0  0  0  0  0  0  0  0  0  0
    2.1510   26.2560   11.2050 N   0  0  0  0  0  0  0  0  0  0  0  0
    2.9580   27.1000   10.4860 N   0  0  0  0  0  0  0  0  0  0  0  0
    3.3550   26.4990    9.2990 C   0  0  0  0  0  0  0  0  0  0  0  0
    4.0070   26.9800    8.3950 O   0  0  0  0  0  0  0  0  0  0  0  0
    2.8230   25.2430    9.3340 N   0  0  0  0  0  0  0  0  0  0  0  0
   -0.0438   26.7787   15.5215 H   0  0  0  0  0  0  0  0  0  0  0  0
    0.1746   25.9075   13.9659 H   0  0  0  0  0  0  0  0  0  0  0  0
   -0.2501   27.6529   13.9659 H   0  0  0  0  0  0  0  0  0  0  0  0
   -1.8688   25.8575   16.5933 H   0  0  0  0  0  0  0  0  0  0  0  0
   -4.2674   25.1938   16.6335 H   0  0  0  0  0  0  0  0  0  0  0  0
   -5.6209   25.2558   14.5432 H   0  0  0  0  0  0  0  0  0  0  0  0
   -4.5847   26.0369   12.4144 H   0  0  0  0  0  0  0  0  0  0  0  0
   -3.1900   30.4379   10.8182 H   0  0  0  0  0  0  0  0  0  0  0  0
   -2.8581   32.7207    9.8561 H   0  0  0  0  0  0  0  0  0  0  0  0
    0.9199   31.4788    8.1755 H   0  0  0  0  0  0  0  0  0  0  0  0
   -0.6760   26.9484    9.1026 H   0  0  0  0  0  0  0  0  0  0  0  0
   -1.9841   24.2106   11.5004 H   0  0  0  0  0  0  0  0  0  0  0  0
   -1.0010   24.4489    9.9778 H   0  0  0  0  0  0  0  0  0  0  0  0
    0.4400   25.2370   12.2400 H   0  0  0  0  0  0  0  0  0  0  0  0
   -0.0074   23.8374   13.8250 H   0  0  0  0  0  0  0  0  0  0  0  0
   -1.1475   22.9684   12.7425 H   0  0  0  0  0  0  0  0  0  0  0  0
    0.5962   22.5372   12.7425 H   0  0  0  0  0  0  0  0  0  0  0  0
    1.9273   23.2580   11.3790 H   0  0  0  0  0  0  0  0  0  0  0  0
    0.8707   23.5291    9.9368 H   0  0  0  0  0  0  0  0  0  0  0  0
    3.1560   28.0580   10.7540 H   0  0  0  0  0  0  0  0  0  0  0  0
    2.9250   24.5960    8.5670 H   0  0  0  0  0  0  0  0  0  0  0  0
  1  2  1  0
  2  3  2  0
  3  4  1  0
  4  5  2  0
  5  6  1  0
  6  7  2  0
  7  8  1  0
  8  9  2  0
  9 10  1  0
 10 11  1  0
 11 12  2  0
 12 13  1  0
 13 14  2  0
 14 15  1  0
 14 16  1  0
 16 17  2  0
 17 18  1  0
 10 19  1  0
 19 20  2  0
 20 21  1  0
 21 22  1  0
 22 23  1  0
 22 24  1  0
 24 25  1  0
 25 26  2  0
 26 27  1  0
 27 28  1  0
 28 29  2  0
 28 30  1  0
  7  2  1  0
 20  8  1  0
 30 25  1  0
 17 11  1  0
  1 31  1  0
  1 32  1  0
  1 33  1  0
  3 34  1  0
  4 35  1  0
  5 36  1  0
  6 37  1  0
 12 38  1  0
 13 39  1  0
 16 40  1  0
 19 41  1  0
 21 42  1  0
 21 43  1  0
 22 44  1  1
 23 45  1  0
 23 46  1  0
 23 47  1  0
 24 48  1  0
 24 49  1  0
 27 50  1  0
 30 51  1  0
M  CHG  1  22   1
M  END
>  <vina_affinity>  (1) 
-8.278

$$$$
dec_C16400168
     RDKit          3D

 54 57  0  0  0  0  0  0  0  0999 V2000
   -3.2660   27.4720   11.5860 C   0  0  0  0  0  0  0  0  0  0  0  0
   -2.7590   26.6930   12.7840 C   0  0  0  0  0  0  0  0  0  0  0  0
   -1.8700   25.6790   12.3060 O   0  0  0  0  0  0  0  0  0  0  0  0
   -0.6200   25.7070   12.8400 C   0  0  0  0  0  0  0  0  0  0  0  0
   -0.3930   25.8050   14.0440 O   0  0  0  0  0  0  0  0  0  0  0  0
    0.4500   25.6110   11.8440 C   0  0  0  0  0  0  0  0  0  0  0  0
    0.8510   26.6000   10.8680 C   0  0  0  0  0  0  0  0  0  0  0  0
    0.2930   27.9230   10.6340 C   0  0  0  0  0  0  0  0  0  0  0  0
   -0.3920   28.1940    9.4440 C   0  0  0  0  0  0  0  0  0  0  0  0
   -0.9360   29.4620    9.2270 C   0  0  0  0  0  0  0  0  0  0  0  0
   -0.7950   30.4580   10.1940 C   0  0  0  0  0  0  0  0  0  0  0  0
   -0.1110   30.1890   11.3800 C   0  0  0  0  0  0  0  0  0  0  0  0
    0.4340   28.9240   11.6020 C   0  0  0  0  0  0  0  0  0  0  0  0
    1.8990   26.1620   10.0830 C   0  0  0  0  0  0  0  0  0  0  0  0
    2.4000   24.5910   10.5020 S   0  0  0  0  0  0  0  0  0  0  0  0
    1.2400   24.4700   11.7340 C   0  0  0  0  0  0  0  0  0  0  0  0
    1.1320   23.3320   12.5200 N   0  0  0  0  0  0  0  0  0  0  0  0
    0.2090   22.3100   12.4220 C   0  0  0  0  0  0  0  0  0  0  0  0
   -0.6860   22.2050   11.5850 O   0  0  0  0  0  0  0  0  0  0  0  0
    0.3980   21.1880   13.4530 C   0  0  0  0  0  0  0  0  0  0  0  0
   -0.6930   21.0210   14.3930 N   0  0  0  0  0  0  0  0  0  0  0  0
   -1.8000   20.2640   14.1660 C   0  0  0  0  0  0  0  0  0  0  0  0
   -2.0360   19.5920   13.1770 O   0  0  0  0  0  0  0  0  0  0  0  0
   -2.6390   20.3750   15.2460 N   0  0  0  0  0  0  0  0  0  0  0  0
   -2.2120   21.4070   16.1620 C   0  0  2  0  0  0  0  0  0  0  0  0
   -2.0900   20.9030   17.5890 C   0  0  0  0  0  0  0  0  0  0  0  0
   -3.1310   22.5820   16.0510 C   0  0  0  0  0  0  0  0  0  0  0  0
   -3.1030   23.7640   15.3360 C   0  0  0  0  0  0  0  0  0  0  0  0
   -4.2760   24.4770   15.6820 C   0  0  0  0  0  0  0  0  0  0  0  0
   -4.9450   23.6940   16.5920 C   0  0  0  0  0  0  0  0  0  0  0  0
   -4.2600   22.5480   16.8290 O   0  0  0  0  0  0  0  0  0  0  0  0
   -0.8380   21.7380   15.5510 C   0  0  0  0  0  0  0  0  0  0  0  0
   -0.0200   22.5300   16.0020 O   0  0  0  0  0  0  0  0  0  0  0  0
   -3.8356   28.3471   11.9320 H   0  0  0  0  0  0  0  0  0  0  0  0
   -2.4124   27.8069   10.9784 H   0  0  0  0  0  0  0  0  0  0  0  0
   -3.9179   26.8271   10.9784 H   0  0  0  0  0  0  0  0  0  0  0  0
   -2.2233   27.3671   13.4685 H   0  0  0  0  0  0  0  0  0  0  0  0
   -3.5997   26.2391   13.3292 H   0  0  0  0  0  0  0  0  0  0  0  0
   -0.5018   27.4095    8.6807 H   0  0  0  0  0  0  0  0  0  0  0  0
   -1.4761   29.6756    8.2929 H   0  0  0  0  0  0  0  0  0  0  0  0
   -1.2235   31.4562   10.0211 H   0  0  0  0  0  0  0  0  0  0  0  0
   -0.0013   30.9755   12.1412 H   0  0  0  0  0  0  0  0  0  0  0  0
    0.9740   28.7136   12.5369 H   0  0  0  0  0  0  0  0  0  0  0  0
    2.3566   26.7591    9.2804 H   0  0  0  0  0  0  0  0  0  0  0  0
    1.8370   23.2550   13.2490 H   0  0  0  0  0  0  0  0  0  0  0  0
    0.5237   20.2417   12.9064 H   0  0  0  0  0  0  0  0  0  0  0  0
    1.2760   21.4702   14.0526 H   0  0  0  0  0  0  0  0  0  0  0  0
   -3.6020   20.0770   15.1640 H   0  0  0  0  0  0  0  0  0  0  0  0
   -2.2899   21.7287   18.2878 H   0  0  0  0  0  0  0  0  0  0  0  0
   -2.8188   20.0963   17.7565 H   0  0  0  0  0  0  0  0  0  0  0  0
   -1.0729   20.5189   17.7565 H   0  0  0  0  0  0  0  0  0  0  0  0
   -2.3207   24.0882   14.6339 H   0  0  0  0  0  0  0  0  0  0  0  0
   -4.5890   25.4597   15.2995 H   0  0  0  0  0  0  0  0  0  0  0  0
   -5.9030   23.9600   17.0627 H   0  0  0  0  0  0  0  0  0  0  0  0
  1  2  1  0
  2  3  1  0
  3  4  1  0
  4  5  2  0
  4  6  1  0
  6  7  1  0
  7  8  1  0
  8  9  2  0
  9 10  1  0
 10 11  2  0
 11 12  1  0
 12 13  2  0
  7 14  2  0
 14 15  1  0
 15 16  1  0
 16 17  1  0
 17 18  1  0
 18 19  2  0
 18 20  1  0
 20 21  1  0
 21 22  1  0
 22 23  2  0
 22 24  1  0
 24 25  1  0
 25 26  1  1
 25 27  1  0
 27 28  2  0
 28 29  1  0
 29 30  2  0
 30 31  1  0
 25 32  1  0
 32 33  2  0
 16  6  2  0
 32 21  1  0
 13  8  1  0
 31 27  1  0
  1 34  1  0
  1 35  1  0
  1 36  1  0
  2 37  1  0
  2 38  1  0
  9 39  1  0
 10 40  1  0
 11 41  1  0
 12 42  1  0
 13 43  1  0
 14 44  1  0
 17 45  1  0
 20 46  1  0
 20 47  1  0
 24 48  1  0
 26 49  1  0
 26 50  1  0
 26 51  1  0
 28 52  1  0
 29 53  1  0
 30 54  1  0
M  END
>  <vina_affinity>  (1) 
-7.717

$$$$
dec_C02712039
     RDKit          3D

 50 53  0  0  0  0  0  0  0  0999 V2000
   -1.5170   32.6870    9.8910 C   0  0  0  0  0  0  0  0  0  0  0  0
   -2.1280   31.6560    8.9610 C   0  0  0  0  0  0  0  0  0  0  0  0
   -1.8080   30.3300    9.4200 O   0  0  0  0  0  0  0  0  0  0  0  0
   -0.5680   29.8780    9.0900 C   0  0  0  0  0  0  0  0  0  0  0  0
    0.0000   30.0680    8.0270 O   0  0  0  0  0  0  0  0  0  0  0  0
    0.0870   29.1710   10.2630 C   0  0  2  0  0  0  0  0  0  0  0  0
    0.1680   27.6490   10.0870 C   0  0  0  0  0  0  0  0  0  0  0  0
   -1.0200   26.9420   10.7210 C   0  0  0  0  0  0  0  0  0  0  0  0
   -1.0800   27.2090   12.2220 N   0  0  1  0  0  0  0  0  0  0  0  0
   -0.5770   26.0230   13.0820 C   0  0  2  0  0  0  0  0  0  0  0  0
    0.2380   24.9960   12.2950 C   0  0  0  0  0  0  0  0  0  0  0  0
    1.5750   25.2880   11.9610 C   0  0  0  0  0  0  0  0  0  0  0  0
    2.3540   24.3710   11.2480 C   0  0  0  0  0  0  0  0  0  0  0  0
    1.8130   23.1480   10.8630 C   0  0  0  0  0  0  0  0  0  0  0  0
    0.5020   22.8470   11.1990 C   0  0  0  0  0  0  0  0  0  0  0  0
   -0.0250   21.6720   10.8350 F   0  0  0  0  0  0  0  0  0  0  0  0
   -0.2860   23.7500   11.9110 C   0  0  0  0  0  0  0  0  0  0  0  0
   -1.6700   25.3270   13.8660 C   0  0  0  0  0  0  0  0  0  0  0  0
   -1.3240   23.9660   14.9800 S   0  0  0  0  0  0  0  0  0  0  0  0
   -3.0150   23.8730   15.3440 C   0  0  0  0  0  0  0  0  0  0  0  0
   -3.7720   23.1200   16.0840 N   0  0  0  0  0  0  0  0  0  0  0  0
   -5.0120   23.6580   15.8220 C   0  0  0  0  0  0  0  0  0  0  0  0
   -5.0400   24.6820   14.9470 N   0  0  0  0  0  0  0  0  0  0  0  0
   -3.7360   24.8020   14.6570 N   0  0  0  0  0  0  0  0  0  0  0  0
   -2.9880   25.6160   13.8210 C   0  0  0  0  0  0  0  0  0  0  0  0
   -3.5520   26.5940   13.0380 O   0  0  0  0  0  0  0  0  0  0  0  0
   -0.4430   28.5270   12.6320 C   0  0  0  0  0  0  0  0  0  0  0  0
   -0.6390   29.5690   11.5490 C   0  0  0  0  0  0  0  0  0  0  0  0
   -1.6935   32.3892   10.9351 H   0  0  0  0  0  0  0  0  0  0  0  0
   -0.4346   32.7518    9.7061 H   0  0  0  0  0  0  0  0  0  0  0  0
   -1.9799   33.6676    9.7061 H   0  0  0  0  0  0  0  0  0  0  0  0
   -3.2206   31.7822    8.9443 H   0  0  0  0  0  0  0  0  0  0  0  0
   -1.7214   31.7962    7.9485 H   0  0  0  0  0  0  0  0  0  0  0  0
    1.1357   29.4980   10.3202 H   0  0  0  0  0  0  0  0  0  0  0  0
    0.1889   27.4157    9.0122 H   0  0  0  0  0  0  0  0  0  0  0  0
    1.0821   27.2957   10.5867 H   0  0  0  0  0  0  0  0  0  0  0  0
   -1.9466   27.3068   10.2537 H   0  0  0  0  0  0  0  0  0  0  0  0
   -0.9079   25.8593   10.5626 H   0  0  0  0  0  0  0  0  0  0  0  0
   -2.0780   27.2910   12.4560 H   0  0  0  0  0  0  0  0  0  0  0  0
    0.0970   26.5028   13.8069 H   0  0  0  0  0  0  0  0  0  0  0  0
    2.0123   26.2504   12.2651 H   0  0  0  0  0  0  0  0  0  0  0  0
    3.3951   24.6167   10.9914 H   0  0  0  0  0  0  0  0  0  0  0  0
    2.4203   22.4263   10.2970 H   0  0  0  0  0  0  0  0  0  0  0  0
   -1.3213   23.4863   12.1731 H   0  0  0  0  0  0  0  0  0  0  0  0
   -5.9259   23.2743   16.2990 H   0  0  0  0  0  0  0  0  0  0  0  0
   -4.5230   26.4280   13.0240 H   0  0  0  0  0  0  0  0  0  0  0  0
   -0.9093   28.8805   13.5635 H   0  0  0  0  0  0  0  0  0  0  0  0
    0.6350   28.3697   12.7844 H   0  0  0  0  0  0  0  0  0  0  0  0
   -1.7139   29.6699   11.3381 H   0  0  0  0  0  0  0  0  0  0  0  0
   -0.2229   30.5235   11.9036 H   0  0  0  0  0  0  0  0  0  0  0  0
  1  2  1  0
  2  3  1  0
  3  4  1  0
  4  5  2  0
  4  6  1  0
  6  7  1  0
  7  8  1  0
  8  9  1  0
  9 10  1  0
 10 11  1  0
 11 12  2  0
 12 13  1  0
 13 14  2  0
 14 15  1  0
 15 16  1  0
 15 17  2  0
 10 18  1  0
 18 19  1  0
 19 20  1  0
 20 21  2  0
 21 22  1  0
 22 23  2  0
 23 24  1  0
 24 25  1  0
 25 26  1  0
  9 27  1  0
 27 28  1  0
 28  6  1  0
 17 11  1  0
 25 18  2  0
 24 20  1  0
  1 29  1  0
  1 30  1  0
  1 31  1  0
  2 32  1  0
  2 33  1  0
  6 34  1  1
  7 35  1  0
  7 36  1  0
  8 37  1  0
  8 38  1  0
  9 39  1  1
 10 40  1  1
 12 41  1  0
 13 42  1  0
 14 43  1  0
 17 44  1  0
 22 45  1  0
 26 46  1  0
 27 47  1  0
 27 48  1  0
 28 49  1  0
 28 50  1  0
M  CHG  1   9   1
M  END
>  <vina_affinity>  (1) 
-7.961

$$$$
dec_C50845382
     RDKit          3D

 43 44  0  0  0  0  0  0  0  0999 V2000
   -0.0200   26.4870   13.7940 N   0  0  0  0  0  0  0  0  0  0  0  0
   -1.2210   26.3710   14.4450 C   0  0  0  0  0  0  0  0  0  0  0  0
   -1.4600   27.0420   15.4410 O   0  0  0  0  0  0  0  0  0  0  0  0
   -2.1600   25.3140   13.8350 C   0  0  1  0  0  0  0  0  0  0  0  0
   -1.5200   24.5460   12.6700 C   0  0  0  0  0  0  0  0  0  0  0  0
   -0.6620   23.4320   13.0930 N   0  0  0  0  0  0  0  0  0  0  0  0
    0.2320   22.9260   12.1500 C   0  0  0  0  0  0  0  0  0  0  0  0
   -0.1380   22.2180   11.2110 O   0  0  0  0  0  0  0  0  0  0  0  0
    1.6960   23.2900   12.3370 C   0  0  0  0  0  0  0  0  0  0  0  0
    2.3130   23.8680   11.0640 C   0  0  0  0  0  0  0  0  0  0  0  0
    2.4700   25.3110   11.1090 N   0  0  0  0  0  0  0  0  0  0  0  0
    1.5130   26.1450   10.5670 C   0  0  0  0  0  0  0  0  0  0  0  0
    0.5380   25.7180    9.9630 O   0  0  0  0  0  0  0  0  0  0  0  0
    1.8340   27.4630   10.8010 N   0  0  0  0  0  0  0  0  0  0  0  0
    1.0870   28.6080   10.4620 C   0  0  0  0  0  0  0  0  0  0  0  0
    1.0940   29.1950    9.1950 C   0  0  0  0  0  0  0  0  0  0  0  0
    0.3180   30.3300    8.9330 C   0  0  0  0  0  0  0  0  0  0  0  0
   -0.4720   30.8790    9.9400 C   0  0  0  0  0  0  0  0  0  0  0  0
   -1.5200   32.4090    9.5850 Br  0  0  0  0  0  0  0  0  0  0  0  0
   -0.4930   30.3030   11.2060 C   0  0  0  0  0  0  0  0  0  0  0  0
    0.2840   29.1690   11.4650 C   0  0  0  0  0  0  0  0  0  0  0  0
   -1.2010   22.6260   14.1900 C   0  0  0  0  0  0  0  0  0  0  0  0
   -1.7490   23.5030   15.3150 C   0  0  0  0  0  0  0  0  0  0  0  0
   -2.7210   24.4380   14.8290 O   0  0  0  0  0  0  0  0  0  0  0  0
    0.5980   27.2290   14.0920 H   0  0  0  0  0  0  0  0  0  0  0  0
    0.0690   26.1280   12.8510 H   0  0  0  0  0  0  0  0  0  0  0  0
   -3.0022   25.8730   13.4011 H   0  0  0  0  0  0  0  0  0  0  0  0
   -2.3244   24.1429   12.0372 H   0  0  0  0  0  0  0  0  0  0  0  0
   -0.8771   25.2584   12.1322 H   0  0  0  0  0  0  0  0  0  0  0  0
    1.7757   24.0371   13.1404 H   0  0  0  0  0  0  0  0  0  0  0  0
    2.2435   22.3703   12.5908 H   0  0  0  0  0  0  0  0  0  0  0  0
    3.3037   23.4129   10.9177 H   0  0  0  0  0  0  0  0  0  0  0  0
    1.6270   23.6393   10.2351 H   0  0  0  0  0  0  0  0  0  0  0  0
    2.9200   25.6460   11.9530 H   0  0  0  0  0  0  0  0  0  0  0  0
    2.7610   27.6160   11.1680 H   0  0  0  0  0  0  0  0  0  0  0  0
    1.7143   28.7619    8.3965 H   0  0  0  0  0  0  0  0  0  0  0  0
    0.3321   30.7878    7.9329 H   0  0  0  0  0  0  0  0  0  0  0  0
   -1.1180   30.7374   12.0001 H   0  0  0  0  0  0  0  0  0  0  0  0
    0.2648   28.7128   12.4658 H   0  0  0  0  0  0  0  0  0  0  0  0
   -2.0131   21.9932   13.8026 H   0  0  0  0  0  0  0  0  0  0  0  0
   -0.3854   22.0114   14.5987 H   0  0  0  0  0  0  0  0  0  0  0  0
   -2.2203   22.8592   16.0723 H   0  0  0  0  0  0  0  0  0  0  0  0
   -0.9120   24.0704   15.7479 H   0  0  0  0  0  0  0  0  0  0  0  0
  1  2  1  0
  2  3  2  0
  2  4  1  0
  4  5  1  0
  5  6  1  0
  6  7  1  0
  7  8  2  0
  7  9  1  0
  9 10  1  0
 10 11  1  0
 11 12  1  0
 12 13  2  0
 12 14  1  0
 14 15  1  0
 15 16  2  0
 16 17  1  0
 17 18  2  0
 18 19  1  0
 18 20  1  0
 20 21  2  0
  6 22  1  0
 22 23  1  0
 23 24  1  0
 24  4  1  0
 21 15  1  0
  1 25  1  0
  1 26  1  0
  4 27  1  6
  5 28  1  0
  5 29  1  0
  9 30  1  0
  9 31  1  0
 10 32  1  0
 10 33  1  0
 11 34  1  0
 14 35  1  0
 16 36  1  0
 17 37  1  0
 20 38  1  0
 21 39  1  0
 22 40  1  0
 22 41  1  0
 23 42  1  0
 23 43  1  0
M  END
>  <vina_affinity>  (1) 
-7.308

$$$$
dec_C09970331
     RDKit          3D

 59 62  0  0  0  0  0  0  0  0999 V2000
    0.9780   29.4860   12.3320 C   0  0  0  0  0  0  0  0  0  0  0  0
    0.3340   29.0720   10.9940 C   0  0  1  0  0  0  0  0  0  0  0  0
    0.7460   30.1290   10.0600 O   0  0  0  0  0  0  0  0  0  0  0  0
    1.4540   29.7050    8.9710 C   0  0  0  0  0  0  0  0  0  0  0  0
    1.2730   30.3440    7.7460 C   0  0  0  0  0  0  0  0  0  0  0  0
    2.0280   29.9490    6.6380 C   0  0  0  0  0  0  0  0  0  0  0  0
    2.9810   28.9370    6.7560 C   0  0  0  0  0  0  0  0  0  0  0  0
    3.7180   28.5680    5.6180 N   0  0  0  0  0  0  0  0  0  0  0  0
    4.6000   27.6340    5.7860 C   0  0  0  0  0  0  0  0  0  0  0  0
    5.4180   27.1940    4.6330 C   0  0  0  0  0  0  0  0  0  0  0  0
    6.3380   26.2340    4.7560 C   0  0  0  0  0  0  0  0  0  0  0  0
    6.5810   25.5690    6.0480 C   0  0  0  0  0  0  0  0  0  0  0  0
    7.4240   24.6880    6.1570 O   0  0  0  0  0  0  0  0  0  0  0  0
    5.7750   25.9980    7.2010 C   0  0  0  0  0  0  0  0  0  0  0  0
    4.8500   26.9570    7.0920 C   0  0  0  0  0  0  0  0  0  0  0  0
    4.1070   27.3380    8.2010 O   0  0  0  0  0  0  0  0  0  0  0  0
    3.1740   28.3300    8.0070 C   0  0  0  0  0  0  0  0  0  0  0  0
    2.4240   28.7170    9.1170 C   0  0  0  0  0  0  0  0  0  0  0  0
    0.8520   27.7950   10.6230 O   0  0  0  0  0  0  0  0  0  0  0  0
    0.0760   26.5970   10.7430 C   0  0  1  0  0  0  0  0  0  0  0  0
   -0.5660   26.2660    9.3720 C   0  0  0  0  0  0  0  0  0  0  0  0
    1.1460   25.4810   10.9600 C   0  0  0  0  0  0  0  0  0  0  0  0
    2.4420   26.0210   11.2110 O   0  0  0  0  0  0  0  0  0  0  0  0
   -1.0030   26.6130   11.8850 C   0  0  2  0  0  0  0  0  0  0  0  0
   -0.3970   26.3120   13.2810 C   0  0  0  0  0  0  0  0  0  0  0  0
   -1.8950   25.4890   11.6670 O   0  0  0  0  0  0  0  0  0  0  0  0
   -1.8420   27.9710   11.8960 C   0  0  1  0  0  0  0  0  0  0  0  0
   -3.3330   27.7290   11.5860 C   0  0  0  0  0  0  0  0  0  0  0  0
   -1.8860   28.4770   13.2660 O   0  0  0  0  0  0  0  0  0  0  0  0
   -1.2340   29.1500   11.0390 C   0  0  2  0  0  0  0  0  0  0  0  0
   -1.8200   29.3260    9.6170 C   0  0  0  0  0  0  0  0  0  0  0  0
   -1.6470   30.3920   11.7070 O   0  0  0  0  0  0  0  0  0  0  0  0
    0.3740   29.0977   13.1653 H   0  0  0  0  0  0  0  0  0  0  0  0
    1.9955   29.0724   12.3927 H   0  0  0  0  0  0  0  0  0  0  0  0
    1.0241   30.5834   12.3927 H   0  0  0  0  0  0  0  0  0  0  0  0
    0.5381   31.1569    7.6512 H   0  0  0  0  0  0  0  0  0  0  0  0
    1.8696   30.4395    5.6662 H   0  0  0  0  0  0  0  0  0  0  0  0
    5.2644   27.6687    3.6527 H   0  0  0  0  0  0  0  0  0  0  0  0
    6.9257   25.9340    3.8759 H   0  0  0  0  0  0  0  0  0  0  0  0
    5.9373   25.5178    8.1773 H   0  0  0  0  0  0  0  0  0  0  0  0
    2.5967   28.2472   10.0965 H   0  0  0  0  0  0  0  0  0  0  0  0
   -1.5334   25.7672    9.5310 H   0  0  0  0  0  0  0  0  0  0  0  0
   -0.7217   27.1962    8.8059 H   0  0  0  0  0  0  0  0  0  0  0  0
    0.1014   25.5996    8.8059 H   0  0  0  0  0  0  0  0  0  0  0  0
    0.8460   24.8646   11.8203 H   0  0  0  0  0  0  0  0  0  0  0  0
    1.2015   24.8817   10.0392 H   0  0  0  0  0  0  0  0  0  0  0  0
    3.0800   25.4190   10.7860 H   0  0  0  0  0  0  0  0  0  0  0  0
   -1.0896   26.6560   14.0633 H   0  0  0  0  0  0  0  0  0  0  0  0
   -0.2354   25.2289   13.3848 H   0  0  0  0  0  0  0  0  0  0  0  0
    0.5637   26.8377   13.3848 H   0  0  0  0  0  0  0  0  0  0  0  0
   -2.1490   25.5160   10.7180 H   0  0  0  0  0  0  0  0  0  0  0  0
   -3.8933   27.6381   12.5282 H   0  0  0  0  0  0  0  0  0  0  0  0
   -3.7285   28.5747   11.0043 H   0  0  0  0  0  0  0  0  0  0  0  0
   -3.4407   26.8016   11.0043 H   0  0  0  0  0  0  0  0  0  0  0  0
   -1.0350   28.9550   13.3820 H   0  0  0  0  0  0  0  0  0  0  0  0
   -2.8712   29.6417    9.6901 H   0  0  0  0  0  0  0  0  0  0  0  0
   -1.2443   30.0909    9.0752 H   0  0  0  0  0  0  0  0  0  0  0  0
   -1.7610   28.3705    9.0752 H   0  0  0  0  0  0  0  0  0  0  0  0
   -1.9260   31.0060   10.9990 H   0  0  0  0  0  0  0  0  0  0  0  0
  1  2  1  0
  2  3  1  6
  3  4  1  0
  4  5  2  0
  5  6  1  0
  6  7  2  0
  7  8  1  0
  8  9  2  0
  9 10  1  0
 10 11  2  0
 11 12  1  0
 12 13  2  0
 12 14  1  0
 14 15  2  0
 15 16  1  0
 16 17  1  0
 17 18  2  0
  2 19  1  0
 19 20  1  0
 20 21  1  6
 20 22  1  0
 22 23  1  0
 20 24  1  0
 24 25  1  0
 24 26  1  6
 24 27  1  0
 27 28  1  0
 27 29  1  1
 27 30  1  0
 30 31  1  0
 30 32  1  1
 30  2  1  0
 18  4  1  0
 17  7  1  0
 15  9  1  0
  1 33  1  0
  1 34  1  0
  1 35  1  0
  5 36  1  0
  6 37  1  0
 10 38  1  0
 11 39  1  0
 14 40  1  0
 18 41  1  0
 21 42  1  0
 21 43  1  0
 21 44  1  0
 22 45  1  0
 22 46  1  0
 23 47  1  0
 25 48  1  0
 25 49  1  0
 25 50  1  0
 26 51  1  0
 28 52  1  0
 28 53  1  0
 28 54  1  0
 29 55  1  0
 31 56  1  0
 31 57  1  0
 31 58  1  0
 32 59  1  0
M  END
>  <vina_affinity>  (1) 
-7.914

$$$$
dec_C11990993
     RDKit          3D

 34 35  0  0  0  0  0  0  0  0999 V2000
    2.3120   27.6830    9.8770 C   0  0  0  0  0  0  0  0  0  0  0  0
    1.3580   26.6830   10.4570 C   0  0  0  0  0  0  0  0  0  0  0  0
    1.7960   25.7590   11.2550 N   0  0  0  0  0  0  0  0  0  0  0  0
    0.8650   24.8530   11.6580 N   0  0  0  0  0  0  0  0  0  0  0  0
   -0.4450   24.7900   11.2300 C   0  0  0  0  0  0  0  0  0  0  0  0
   -1.1450   23.8470   11.5860 O   0  0  0  0  0  0  0  0  0  0  0  0
   -0.9260   25.8000   10.4430 N   0  0  0  0  0  0  0  0  0  0  0  0
   -0.1200   26.7530   10.0870 C   0  0  0  0  0  0  0  0  0  0  0  0
   -0.6470   27.7910    9.3430 N   0  0  0  0  0  0  0  0  0  0  0  0
   -0.7090   29.1600    9.8790 C   0  0  2  0  0  0  0  0  0  0  0  0
   -1.9210   29.3160   10.8200 C   0  0  0  0  0  0  0  0  0  0  0  0
   -3.1620   29.8110   10.0860 C   0  0  0  0  0  0  0  0  0  0  0  0
   -2.9340   31.1830    9.4530 C   0  0  0  0  0  0  0  0  0  0  0  0
   -1.4780   31.4410    9.0620 C   0  0  0  0  0  0  0  0  0  0  0  0
   -0.7550   30.1450    8.6810 C   0  0  1  0  0  0  0  0  0  0  0  0
    0.6530   30.4440    8.1600 C   0  0  0  0  0  0  0  0  0  0  0  0
    2.8224   28.2180   10.6914 H   0  0  0  0  0  0  0  0  0  0  0  0
    3.0567   27.1625    9.2570 H   0  0  0  0  0  0  0  0  0  0  0  0
    1.7570   28.4024    9.2570 H   0  0  0  0  0  0  0  0  0  0  0  0
    1.1860   24.0830   12.2340 H   0  0  0  0  0  0  0  0  0  0  0  0
   -1.5850   27.5070    9.0540 H   0  0  0  0  0  0  0  0  0  0  0  0
    0.1814   29.3838   10.4849 H   0  0  0  0  0  0  0  0  0  0  0  0
   -2.1444   28.3394   11.2742 H   0  0  0  0  0  0  0  0  0  0  0  0
   -1.6606   30.0636   11.5838 H   0  0  0  0  0  0  0  0  0  0  0  0
   -3.4190   29.0915    9.2947 H   0  0  0  0  0  0  0  0  0  0  0  0
   -3.9794   29.9017   10.8165 H   0  0  0  0  0  0  0  0  0  0  0  0
   -3.5556   31.2566    8.5484 H   0  0  0  0  0  0  0  0  0  0  0  0
   -3.2043   31.9361   10.2078 H   0  0  0  0  0  0  0  0  0  0  0  0
   -1.4560   32.1273    8.2026 H   0  0  0  0  0  0  0  0  0  0  0  0
   -0.9625   31.8787    9.9296 H   0  0  0  0  0  0  0  0  0  0  0  0
   -1.3227   29.6619    7.8721 H   0  0  0  0  0  0  0  0  0  0  0  0
    1.3355   30.5889    9.0104 H   0  0  0  0  0  0  0  0  0  0  0  0
    1.0042   29.6004    7.5476 H   0  0  0  0  0  0  0  0  0  0  0  0
    0.6311   31.3575    7.5476 H   0  0  0  0  0  0  0  0  0  0  0  0
  1  2  1  0
  2  3  2  0
  3  4  1  0
  4  5  1  0
  5  6  2  0
  5  7  1  0
  7  8  2  0
  8  9  1  0
  9 10  1  0
 10 11  1  0
 11 12  1  0
 12 13  1  0
 13 14  1  0
 14 15  1  0
 15 16  1  0
  8  2  1  0
 15 10  1  0
  1 17  1  0
  1 18  1  0
  1 19  1  0
  4 20  1  0
  9 21  1  0
 10 22  1  1
 11 23  1  0
 11 24  1  0
 12 25  1  0
 12 26  1  0
 13 27  1  0
 13 28  1  0
 14 29  1  0
 14 30  1  0
 15 31  1  6
 16 32  1  0
 16 33  1  0
 16 34  1  0
M  END
>  <vina_affinity>  (1) 
-7.014

$$$$
dec_C09156656
     RDKit          3D

 47 51  0  0  0  0  0  0  0  0999 V2000
   -0.9510   25.7240   14.8260 C   0  0  0  0  0  0  0  0  0  0  0  0
   -0.2760   25.3450   13.6330 O   0  0  0  0  0  0  0  0  0  0  0  0
   -0.5450   26.0810   12.5080 C   0  0  0  0  0  0  0  0  0  0  0  0
   -0.3020   27.4450   12.3360 C   0  0  0  0  0  0  0  0  0  0  0  0
   -0.6210   28.0830   11.1180 C   0  0  0  0  0  0  0  0  0  0  0  0
   -0.3670   29.5730   10.9490 C   0  0  2  0  0  0  0  0  0  0  0  0
   -1.6300   30.2620   11.1510 N   0  0  0  0  0  0  0  0  0  0  0  0
   -1.9100   31.3230   10.3600 C   0  0  0  0  0  0  0  0  0  0  0  0
   -2.9840   32.0060   10.8200 N   0  0  0  0  0  0  0  0  0  0  0  0
   -1.2930   31.6880    9.2870 N   0  0  0  0  0  0  0  0  0  0  0  0
   -0.2290   30.9380    8.9040 C   0  0  0  0  0  0  0  0  0  0  0  0
    0.5080   31.0650    7.8180 N   0  0  0  0  0  0  0  0  0  0  0  0
    1.5090   30.1340    7.9200 C   0  0  0  0  0  0  0  0  0  0  0  0
    2.5600   29.8640    7.0320 C   0  0  0  0  0  0  0  0  0  0  0  0
    3.4990   28.8870    7.3790 C   0  0  0  0  0  0  0  0  0  0  0  0
    3.3790   28.1730    8.5750 C   0  0  0  0  0  0  0  0  0  0  0  0
    2.3120   28.4040    9.4540 C   0  0  0  0  0  0  0  0  0  0  0  0
    1.3970   29.4010    9.0980 C   0  0  0  0  0  0  0  0  0  0  0  0
    0.2570   29.8990    9.6730 N   0  0  0  0  0  0  0  0  0  0  0  0
    4.2230   27.1480    8.9190 O   0  0  0  0  0  0  0  0  0  0  0  0
    4.1050   26.0320    8.0350 C   0  0  0  0  0  0  0  0  0  0  0  0
    4.9160   26.2200    6.7640 C   0  0  0  0  0  0  0  0  0  0  0  0
    4.3060   27.3100    5.8790 C   0  0  0  0  0  0  0  0  0  0  0  0
    4.4610   28.6110    6.4440 O   0  0  0  0  0  0  0  0  0  0  0  0
   -1.2090   27.3280   10.0850 C   0  0  0  0  0  0  0  0  0  0  0  0
   -1.4560   25.9670   10.2550 C   0  0  0  0  0  0  0  0  0  0  0  0
   -1.1250   25.3600   11.4580 C   0  0  0  0  0  0  0  0  0  0  0  0
   -1.3800   24.0240   11.5980 O   0  0  0  0  0  0  0  0  0  0  0  0
   -0.3664   25.3958   15.6981 H   0  0  0  0  0  0  0  0  0  0  0  0
   -1.0646   26.8178   14.8513 H   0  0  0  0  0  0  0  0  0  0  0  0
   -1.9440   25.2515   14.8513 H   0  0  0  0  0  0  0  0  0  0  0  0
    0.1419   28.0275   13.1568 H   0  0  0  0  0  0  0  0  0  0  0  0
    0.3628   29.9111   11.6994 H   0  0  0  0  0  0  0  0  0  0  0  0
   -1.9030   30.3650   12.1200 H   0  0  0  0  0  0  0  0  0  0  0  0
   -3.7740   31.4030   11.0170 H   0  0  0  0  0  0  0  0  0  0  0  0
   -3.2570   32.7120   10.1400 H   0  0  0  0  0  0  0  0  0  0  0  0
    2.6445   30.4100    6.0808 H   0  0  0  0  0  0  0  0  0  0  0  0
    2.1988   27.8266   10.3834 H   0  0  0  0  0  0  0  0  0  0  0  0
    4.4622   25.1299    8.5533 H   0  0  0  0  0  0  0  0  0  0  0  0
    3.0468   25.9366    7.7501 H   0  0  0  0  0  0  0  0  0  0  0  0
    5.9433   26.5077    7.0322 H   0  0  0  0  0  0  0  0  0  0  0  0
    4.9142   25.2730    6.2043 H   0  0  0  0  0  0  0  0  0  0  0  0
    4.8021   27.2884    4.8974 H   0  0  0  0  0  0  0  0  0  0  0  0
    3.2287   27.1074    5.7871 H   0  0  0  0  0  0  0  0  0  0  0  0
   -1.4755   27.8164    9.1361 H   0  0  0  0  0  0  0  0  0  0  0  0
   -1.9092   25.3794    9.4430 H   0  0  0  0  0  0  0  0  0  0  0  0
   -1.7860   23.7520   10.7530 H   0  0  0  0  0  0  0  0  0  0  0  0
  1  2  1  0
  2  3  1  0
  3  4  2  0
  4  5  1  0
  5  6  1  0
  6  7  1  0
  7  8  1  0
  8  9  1  0
  8 10  2  0
 10 11  1  0
 11 12  2  0
 12 13  1  0
 13 14  2  0
 14 15  1  0
 15 16  2  0
 16 17  1  0
 17 18  2  0
 18 19  1  0
 16 20  1  0
 20 21  1  0
 21 22  1  0
 22 23  1  0
 23 24  1  0
  5 25  2  0
 25 26  1  0
 26 27  2  0
 27 28  1  0
 27  3  1  0
 19  6  1  0
 19 11  1  0
 18 13  1  0
 24 15  1  0
  1 29  1  0
  1 30  1  0
  1 31  1  0
  4 32  1  0
  6 33  1  1
  7 34  1  0
  9 35  1  0
  9 36  1  0
 14 37  1  0
 17 38  1  0
 21 39  1  0
 21 40  1  0
 22 41  1  0
 22 42  1  0
 23 43  1  0
 23 44  1  0
 25 45  1  0
 26 46  1  0
 28 47  1  0
M  END
>  <vina_affinity>  (1) 
-7.527

$$$$
dec_C40261805
     RDKit          3D

 41 43  0  0  0  0  0  0  0  0999 V2000
    0.6300   26.3150   11.0540 C   0  0  0  0  0  0  0  0  0  0  0  0
    0.2120   27.6380   11.3560 O   0  0  0  0  0  0  0  0  0  0  0  0
    0.2360   28.5540   10.3340 C   0  0  0  0  0  0  0  0  0  0  0  0
    1.3870   28.9450    9.6390 C   0  0  0  0  0  0  0  0  0  0  0  0
    1.3260   29.8940    8.6010 C   0  0  0  0  0  0  0  0  0  0  0  0
    2.5650   30.3300    7.8360 C   0  0  2  0  0  0  0  0  0  0  0  0
    2.2300   31.1510    6.7130 O   0  0  0  0  0  0  0  0  0  0  0  0
    3.4350   29.1780    7.3580 C   0  0  0  0  0  0  0  0  0  0  0  0
    4.3180   28.5250    8.2520 C   0  0  0  0  0  0  0  0  0  0  0  0
    5.1130   27.4580    7.8290 C   0  0  0  0  0  0  0  0  0  0  0  0
    5.0050   27.0530    6.5170 C   0  0  0  0  0  0  0  0  0  0  0  0
    4.1460   27.6740    5.6270 C   0  0  0  0  0  0  0  0  0  0  0  0
    3.3550   28.7390    6.0250 C   0  0  0  0  0  0  0  0  0  0  0  0
    4.2940   27.0600    4.2880 C   0  0  0  0  0  0  0  0  0  0  0  0
    5.1340   25.8260    4.6570 C   0  0  2  0  0  0  0  0  0  0  0  0
    4.3120   24.5400    4.6840 C   0  0  0  0  0  0  0  0  0  0  0  0
    5.7220   26.0240    5.9690 O   0  0  0  0  0  0  0  0  0  0  0  0
    0.0770   30.4420    8.2720 C   0  0  0  0  0  0  0  0  0  0  0  0
   -1.0730   30.0600    8.9610 C   0  0  0  0  0  0  0  0  0  0  0  0
   -1.0050   29.1180    9.9950 C   0  0  0  0  0  0  0  0  0  0  0  0
   -2.2570   28.7210   10.7270 C   0  0  0  0  0  0  0  0  0  0  0  0
    0.8044   25.7630   11.9894 H   0  0  0  0  0  0  0  0  0  0  0  0
   -0.1517   25.8079   10.4693 H   0  0  0  0  0  0  0  0  0  0  0  0
    1.5611   26.3491   10.4693 H   0  0  0  0  0  0  0  0  0  0  0  0
    2.3571   28.5023    9.9092 H   0  0  0  0  0  0  0  0  0  0  0  0
    3.1503   30.9073    8.5669 H   0  0  0  0  0  0  0  0  0  0  0  0
    3.0600   31.5300    6.3800 H   0  0  0  0  0  0  0  0  0  0  0  0
    4.3786   28.8639    9.2967 H   0  0  0  0  0  0  0  0  0  0  0  0
    5.8042   26.9563    8.5222 H   0  0  0  0  0  0  0  0  0  0  0  0
    2.6775   29.2316    5.3120 H   0  0  0  0  0  0  0  0  0  0  0  0
    3.3217   26.7790    3.8571 H   0  0  0  0  0  0  0  0  0  0  0  0
    4.7387   27.7136    3.5231 H   0  0  0  0  0  0  0  0  0  0  0  0
    5.9067   25.7163    3.8819 H   0  0  0  0  0  0  0  0  0  0  0  0
    4.1244   24.2466    5.7274 H   0  0  0  0  0  0  0  0  0  0  0  0
    3.3529   24.7071    4.1720 H   0  0  0  0  0  0  0  0  0  0  0  0
    4.8664   23.7397    4.1720 H   0  0  0  0  0  0  0  0  0  0  0  0
    0.0044   31.1816    7.4610 H   0  0  0  0  0  0  0  0  0  0  0  0
   -2.0429   30.5026    8.6900 H   0  0  0  0  0  0  0  0  0  0  0  0
   -2.0810   28.7768   11.8114 H   0  0  0  0  0  0  0  0  0  0  0  0
   -3.0744   29.4040   10.4526 H   0  0  0  0  0  0  0  0  0  0  0  0
   -2.5315   27.6918   10.4526 H   0  0  0  0  0  0  0  0  0  0  0  0
  1  2  1  0
  2  3  1  0
  3  4  2  0
  4  5  1  0
  5  6  1  0
  6  7  1  0
  6  8  1  0
  8  9  2  0
  9 10  1  0
 10 11  2  0
 11 12  1  0
 12 13  2  0
 12 14  1  0
 14 15  1  0
 15 16  1  0
 15 17  1  0
  5 18  2  0
 18 19  1  0
 19 20  2  0
 20 21  1  0
 20  3  1  0
 13  8  1  0
 17 11  1  0
  1 22  1  0
  1 23  1  0
  1 24  1  0
  4 25  1  0
  6 26  1  1
  7 27  1  0
  9 28  1  0
 10 29  1  0
 13 30  1  0
 14 31  1  0
 14 32  1  0
 15 33  1  6
 16 34  1  0
 16 35  1  0
 16 36  1  0
 18 37  1  0
 19 38  1  0
 21 39  1  0
 21 40  1  0
 21 41  1  0
M  END
>  <vina_affinity>  (1) 
-8.136

$$$$
dec_C48840143
     RDKit          3D

 37 38  0  0  0  0  0  0  0  0999 V2000
   -1.8960   25.5970   10.3580 N   0  0  0  0  0  0  0  0  0  0  0  0
   -1.7950   25.9480   11.7800 C   0  0  1  0  0  0  0  0  0  0  0  0
   -1.0400   24.8850   12.5630 C   0  0  0  0  0  0  0  0  0  0  0  0
   -0.9790   25.2770   14.0440 C   0  0  0  0  0  0  0  0  0  0  0  0
   -0.4290   26.6910   14.2610 C   0  0  0  0  0  0  0  0  0  0  0  0
   -1.1450   27.7410   13.4050 C   0  0  0  0  0  0  0  0  0  0  0  0
   -1.1150   27.3340   11.9270 C   0  0  2  0  0  0  0  0  0  0  0  0
   -1.8390   28.3080   11.0790 N   0  0  0  0  0  0  0  0  0  0  0  0
   -1.1000   29.0770   10.1500 C   0  0  0  0  0  0  0  0  0  0  0  0
    0.1850   28.5840    9.8260 C   0  0  0  0  0  0  0  0  0  0  0  0
    1.0310   29.2370    8.9250 C   0  0  0  0  0  0  0  0  0  0  0  0
    0.6140   30.4290    8.3370 C   0  0  0  0  0  0  0  0  0  0  0  0
    1.4920   31.1190    7.3860 N   0  0  0  0  0  0  0  0  0  0  0  0
    2.2300   30.4180    6.6760 O   0  0  0  0  0  0  0  0  0  0  0  0
    1.4570   32.3570    7.3510 O   0  0  0  0  0  0  0  0  0  0  0  0
   -0.6270   30.9730    8.6670 C   0  0  0  0  0  0  0  0  0  0  0  0
   -1.4800   30.3230    9.5930 C   0  0  0  0  0  0  0  0  0  0  0  0
   -2.7500   31.0500    9.9160 C   0  0  0  0  0  0  0  0  0  0  0  0
   -3.8380   30.4440    9.7090 O   0  0  0  0  0  0  0  0  0  0  0  0
   -2.6460   32.2000   10.4610 O   0  0  0  0  0  0  0  0  0  0  0  0
   -1.0230   25.1020   10.0180 H   0  0  0  0  0  0  0  0  0  0  0  0
   -2.6970   25.0770   10.0120 H   0  0  0  0  0  0  0  0  0  0  0  0
   -1.7360   26.4500    9.7980 H   0  0  0  0  0  0  0  0  0  0  0  0
   -2.8101   25.9999   12.2007 H   0  0  0  0  0  0  0  0  0  0  0  0
   -1.5579   23.9199   12.4616 H   0  0  0  0  0  0  0  0  0  0  0  0
   -0.0172   24.7999   12.1672 H   0  0  0  0  0  0  0  0  0  0  0  0
   -1.9947   25.2266   14.4632 H   0  0  0  0  0  0  0  0  0  0  0  0
   -0.2961   24.5751   14.5449 H   0  0  0  0  0  0  0  0  0  0  0  0
   -0.5519   26.9577   15.3211 H   0  0  0  0  0  0  0  0  0  0  0  0
    0.6300   26.6852   13.9635 H   0  0  0  0  0  0  0  0  0  0  0  0
   -2.1904   27.8276   13.7363 H   0  0  0  0  0  0  0  0  0  0  0  0
   -0.6316   28.7070   13.5204 H   0  0  0  0  0  0  0  0  0  0  0  0
   -0.0657   27.3012   11.5986 H   0  0  0  0  0  0  0  0  0  0  0  0
   -2.4260   28.9210   11.6450 H   0  0  0  0  0  0  0  0  0  0  0  0
    0.5312   27.6536   10.2998 H   0  0  0  0  0  0  0  0  0  0  0  0
    2.0169   28.8135    8.6825 H   0  0  0  0  0  0  0  0  0  0  0  0
   -0.9473   31.9175    8.2031 H   0  0  0  0  0  0  0  0  0  0  0  0
  1  2  1  0
  2  3  1  0
  3  4  1  0
  4  5  1  0
  5  6  1  0
  6  7  1  0
  7  8  1  0
  8  9  1  0
  9 10  2  0
 10 11  1  0
 11 12  2  0
 12 13  1  0
 13 14  2  0
 13 15  1  0
 12 16  1  0
 16 17  2  0
 17 18  1  0
 18 19  2  0
 18 20  1  0
  7  2  1  0
 17  9  1  0
  1 21  1  0
  1 22  1  0
  1 23  1  0
  2 24  1  1
  3 25  1  0
  3 26  1  0
  4 27  1  0
  4 28  1  0
  5 29  1  0
  5 30  1  0
  6 31  1  0
  6 32  1  0
  7 33  1  6
  8 34  1  0
 10 35  1  0
 11 36  1  0
 16 37  1  0
M  CHG  4   1   1  13   1  15  -1  20  -1
M  END
>  <vina_affinity>  (1) 
-7.180

$$$$
dec_C35007512
     RDKit          3D

 52 54  0  0  0  0  0  0  0  0999 V2000
   -2.7530   25.1950   14.2060 C   0  0  0  0  0  0  0  0  0  0  0  0
   -1.9880   26.2690   14.9640 C   0  0  0  0  0  0  0  0  0  0  0  0
   -0.6230   26.5370   14.3270 C   0  0  0  0  0  0  0  0  0  0  0  0
   -0.6970   27.5860   13.2220 C   0  0  0  0  0  0  0  0  0  0  0  0
   -0.9700   28.7570   13.4930 O   0  0  0  0  0  0  0  0  0  0  0  0
   -0.5370   27.1570   11.8910 N   0  0  0  0  0  0  0  0  0  0  0  0
    0.2990   25.9440   11.6950 C   0  0  0  0  0  0  0  0  0  0  0  0
    1.5580   26.1980   10.8360 C   0  0  0  0  0  0  0  0  0  0  0  0
    2.1080   24.9280   10.1800 C   0  0  0  0  0  0  0  0  0  0  0  0
    1.8290   23.6840   11.0130 C   0  0  0  0  0  0  0  0  0  0  0  0
    0.3300   23.4540   11.2100 C   0  0  0  0  0  0  0  0  0  0  0  0
   -0.5010   24.7400   11.1850 C   0  0  0  0  0  0  0  0  0  0  0  0
   -1.4830   27.5330   10.8050 C   0  0  1  0  0  0  0  0  0  0  0  0
   -2.9570   27.4490   11.2120 C   0  0  0  0  0  0  0  0  0  0  0  0
   -1.0930   28.8650   10.1450 C   0  0  0  0  0  0  0  0  0  0  0  0
   -0.1540   28.9410    9.2560 N   0  0  0  0  0  0  0  0  0  0  0  0
    0.1440   30.2030    8.7140 C   0  0  0  0  0  0  0  0  0  0  0  0
    1.1560   30.3050    7.7580 C   0  0  0  0  0  0  0  0  0  0  0  0
    1.4800   31.5420    7.1920 C   0  0  0  0  0  0  0  0  0  0  0  0
    0.7900   32.6930    7.5790 C   0  0  0  0  0  0  0  0  0  0  0  0
   -0.2230   32.6080    8.5320 C   0  0  0  0  0  0  0  0  0  0  0  0
   -0.5350   31.3650    9.0920 C   0  0  0  0  0  0  0  0  0  0  0  0
   -1.6020   31.2290   10.0950 C   0  0  0  0  0  0  0  0  0  0  0  0
   -2.2860   32.1760   10.4600 O   0  0  0  0  0  0  0  0  0  0  0  0
   -1.7890   29.9630   10.5870 N   0  0  0  0  0  0  0  0  0  0  0  0
   -3.2373   24.5151   14.9224 H   0  0  0  0  0  0  0  0  0  0  0  0
   -3.5190   25.6676   13.5737 H   0  0  0  0  0  0  0  0  0  0  0  0
   -2.0560   24.6255   13.5737 H   0  0  0  0  0  0  0  0  0  0  0  0
   -2.5751   27.1992   14.9567 H   0  0  0  0  0  0  0  0  0  0  0  0
   -1.8264   25.9174   15.9937 H   0  0  0  0  0  0  0  0  0  0  0  0
    0.0677   26.8918   15.1062 H   0  0  0  0  0  0  0  0  0  0  0  0
   -0.2710   25.5972   13.8765 H   0  0  0  0  0  0  0  0  0  0  0  0
    0.6577   25.6844   12.7019 H   0  0  0  0  0  0  0  0  0  0  0  0
    1.3016   26.9174   10.0443 H   0  0  0  0  0  0  0  0  0  0  0  0
    2.3393   26.5833   11.5077 H   0  0  0  0  0  0  0  0  0  0  0  0
    1.6374   24.8066    9.1932 H   0  0  0  0  0  0  0  0  0  0  0  0
    3.1989   25.0382   10.0921 H   0  0  0  0  0  0  0  0  0  0  0  0
    2.2587   22.8099   10.5018 H   0  0  0  0  0  0  0  0  0  0  0  0
    2.2849   23.8278   12.0037 H   0  0  0  0  0  0  0  0  0  0  0  0
   -0.0282   22.7939   10.4063 H   0  0  0  0  0  0  0  0  0  0  0  0
    0.2025   23.0094   12.2080 H   0  0  0  0  0  0  0  0  0  0  0  0
   -0.8211   24.9371   10.1512 H   0  0  0  0  0  0  0  0  0  0  0  0
   -1.3681   24.6000   11.8472 H   0  0  0  0  0  0  0  0  0  0  0  0
   -1.3822   26.7630   10.0259 H   0  0  0  0  0  0  0  0  0  0  0  0
   -3.0347   27.4446   12.3092 H   0  0  0  0  0  0  0  0  0  0  0  0
   -3.4986   28.3177   10.8095 H   0  0  0  0  0  0  0  0  0  0  0  0
   -3.3964   26.5244   10.8095 H   0  0  0  0  0  0  0  0  0  0  0  0
    1.7040   29.4034    7.4468 H   0  0  0  0  0  0  0  0  0  0  0  0
    2.2802   31.6087    6.4402 H   0  0  0  0  0  0  0  0  0  0  0  0
    1.0458   33.6651    7.1322 H   0  0  0  0  0  0  0  0  0  0  0  0
   -0.7720   33.5098    8.8409 H   0  0  0  0  0  0  0  0  0  0  0  0
   -2.5670   29.8470   11.2220 H   0  0  0  0  0  0  0  0  0  0  0  0
  1  2  1  0
  2  3  1  0
  3  4  1  0
  4  5  2  0
  4  6  1  0
  6  7  1  0
  7  8  1  0
  8  9  1  0
  9 10  1  0
 10 11  1  0
 11 12  1  0
  6 13  1  0
 13 14  1  0
 13 15  1  0
 15 16  2  0
 16 17  1  0
 17 18  2  0
 18 19  1  0
 19 20  2  0
 20 21  1  0
 21 22  2  0
 22 23  1  0
 23 24  2  0
 23 25  1  0
 12  7  1  0
 25 15  1  0
 22 17  1  0
  1 26  1  0
  1 27  1  0
  1 28  1  0
  2 29  1  0
  2 30  1  0
  3 31  1  0
  3 32  1  0
  7 33  1  0
  8 34  1  0
  8 35  1  0
  9 36  1  0
  9 37  1  0
 10 38  1  0
 10 39  1  0
 11 40  1  0
 11 41  1  0
 12 42  1  0
 12 43  1  0
 13 44  1  6
 14 45  1  0
 14 46  1  0
 14 47  1  0
 18 48  1  0
 19 49  1  0
 20 50  1  0
 21 51  1  0
 25 52  1  0
M  END
>  <vina_affinity>  (1) 
-7.582

$$$$
dec_C36759188
     RDKit          3D

 55 57  0  0  0  0  0  0  0  0999 V2000
   -2.4150   33.0650   11.1700 C   0  0  0  0  0  0  0  0  0  0  0  0
   -1.8630   31.8930   10.4700 C   0  0  0  0  0  0  0  0  0  0  0  0
   -2.1610   30.5990   10.8370 N   0  0  0  0  0  0  0  0  0  0  0  0
   -1.5320   29.7240   10.0720 C   0  0  0  0  0  0  0  0  0  0  0  0
   -1.5990   27.9440   10.2240 S   0  0  0  0  0  0  0  0  0  0  0  0
   -2.6460   27.7090   11.6830 C   0  0  0  0  0  0  0  0  0  0  0  0
   -1.8700   26.9730   12.7510 C   0  0  0  0  0  0  0  0  0  0  0  0
   -1.0480   27.5790   13.4430 O   0  0  0  0  0  0  0  0  0  0  0  0
   -2.1470   25.6380   12.8860 N   0  0  0  0  0  0  0  0  0  0  0  0
   -1.1030   24.7600   12.7570 C   0  0  0  0  0  0  0  0  0  0  0  0
    0.0370   25.0710   12.4380 O   0  0  0  0  0  0  0  0  0  0  0  0
   -1.5060   23.4580   12.9770 N   0  0  0  0  0  0  0  0  0  0  0  0
   -0.5020   22.3900   12.9810 C   0  0  2  0  0  0  0  0  0  0  0  0
   -1.1430   20.9990   12.9170 C   0  0  0  0  0  0  0  0  0  0  0  0
   -1.6850   20.6710   14.3040 C   0  0  0  0  0  0  0  0  0  0  0  0
   -0.6620   21.5720   15.4570 S   0  0  0  0  0  0  0  0  0  0  0  0
    0.1520   20.6450   16.2080 O   0  0  0  0  0  0  0  0  0  0  0  0
   -1.5000   22.5750   16.0840 O   0  0  0  0  0  0  0  0  0  0  0  0
    0.3530   22.3960   14.2470 C   0  0  0  0  0  0  0  0  0  0  0  0
   -0.8060   30.4030    9.1760 N   0  0  0  0  0  0  0  0  0  0  0  0
    0.1130   29.8050    8.1850 C   0  0  0  0  0  0  0  0  0  0  0  0
    1.5460   29.6940    8.7200 C   0  0  1  0  0  0  0  0  0  0  0  0
    1.8500   28.3410    9.3370 C   0  0  0  0  0  0  0  0  0  0  0  0
    3.3530   28.2880    9.2190 C   0  0  0  0  0  0  0  0  0  0  0  0
    3.5910   28.9430    7.8740 C   0  0  0  0  0  0  0  0  0  0  0  0
    2.5020   29.8570    7.6530 O   0  0  0  0  0  0  0  0  0  0  0  0
   -0.9980   31.7860    9.3900 C   0  0  0  0  0  0  0  0  0  0  0  0
   -0.3590   32.8490    8.5850 C   0  0  0  0  0  0  0  0  0  0  0  0
   -2.3424   32.9108   12.2567 H   0  0  0  0  0  0  0  0  0  0  0  0
   -1.8450   33.9625   10.8881 H   0  0  0  0  0  0  0  0  0  0  0  0
   -3.4700   33.1972   10.8881 H   0  0  0  0  0  0  0  0  0  0  0  0
   -2.7620   30.3450   11.6280 H   0  0  0  0  0  0  0  0  0  0  0  0
   -2.9608   28.6896   12.0694 H   0  0  0  0  0  0  0  0  0  0  0  0
   -3.5329   27.1206   11.4051 H   0  0  0  0  0  0  0  0  0  0  0  0
   -2.9820   25.2770   12.4470 H   0  0  0  0  0  0  0  0  0  0  0  0
   -2.2430   23.3900   13.6750 H   0  0  0  0  0  0  0  0  0  0  0  0
    0.1142   22.5883   12.0917 H   0  0  0  0  0  0  0  0  0  0  0  0
   -1.9639   20.9987   12.1848 H   0  0  0  0  0  0  0  0  0  0  0  0
   -0.4013   20.2482   12.6070 H   0  0  0  0  0  0  0  0  0  0  0  0
   -2.7333   20.9927   14.3907 H   0  0  0  0  0  0  0  0  0  0  0  0
   -1.6587   19.5892   14.5017 H   0  0  0  0  0  0  0  0  0  0  0  0
    0.5783   23.4257   14.5617 H   0  0  0  0  0  0  0  0  0  0  0  0
    1.3254   21.9022   14.1033 H   0  0  0  0  0  0  0  0  0  0  0  0
   -0.2486   28.7984    7.9282 H   0  0  0  0  0  0  0  0  0  0  0  0
    0.1312   30.4602    7.3016 H   0  0  0  0  0  0  0  0  0  0  0  0
    1.6254   30.4829    9.4825 H   0  0  0  0  0  0  0  0  0  0  0  0
    1.5276   28.2969   10.3878 H   0  0  0  0  0  0  0  0  0  0  0  0
    1.3320   27.5003    8.8524 H   0  0  0  0  0  0  0  0  0  0  0  0
    3.8370   28.8532   10.0292 H   0  0  0  0  0  0  0  0  0  0  0  0
    3.7666   27.2715    9.2948 H   0  0  0  0  0  0  0  0  0  0  0  0
    4.5462   29.4885    7.8831 H   0  0  0  0  0  0  0  0  0  0  0  0
    3.6402   28.1899    7.0737 H   0  0  0  0  0  0  0  0  0  0  0  0
    0.0904   33.5965    9.2553 H   0  0  0  0  0  0  0  0  0  0  0  0
    0.4238   32.4079    7.9504 H   0  0  0  0  0  0  0  0  0  0  0  0
   -1.1158   33.3334    7.9504 H   0  0  0  0  0  0  0  0  0  0  0  0
  1  2  1  0
  2  3  1  0
  3  4  2  0
  4  5  1  0
  5  6  1  0
  6  7  1  0
  7  8  2  0
  7  9  1  0
  9 10  1  0
 10 11  2  0
 10 12  1  0
 12 13  1  0
 13 14  1  0
 14 15  1  0
 15 16  1  0
 16 17  2  0
 16 18  2  0
 16 19  1  0
  4 20  1  0
 20 21  1  0
 21 22  1  0
 22 23  1  0
 23 24  1  0
 24 25  1  0
 25 26  1  0
 20 27  1  0
 27 28  1  0
 27  2  2  0
 19 13  1  0
 26 22  1  0
  1 29  1  0
  1 30  1  0
  1 31  1  0
  3 32  1  0
  6 33  1  0
  6 34  1  0
  9 35  1  0
 12 36  1  0
 13 37  1  6
 14 38  1  0
 14 39  1  0
 15 40  1  0
 15 41  1  0
 19 42  1  0
 19 43  1  0
 21 44  1  0
 21 45  1  0
 22 46  1  1
 23 47  1  0
 23 48  1  0
 24 49  1  0
 24 50  1  0
 25 51  1  0
 25 52  1  0
 28 53  1  0
 28 54  1  0
 28 55  1  0
M  CHG  1   3   1
M  END
>  <vina_affinity>  (1) 
-8.268

$$$$
dec_C63896912
     RDKit          3D

 54 58  0  0  0  0  0  0  0  0999 V2000
   -0.9890   24.7920   11.0530 O   0  0  0  0  0  0  0  0  0  0  0  0
   -0.9770   25.7280   11.8530 C   0  0  0  0  0  0  0  0  0  0  0  0
   -0.9120   25.4210   13.3400 C   0  0  2  0  0  0  0  0  0  0  0  0
   -2.2790   24.8470   13.8360 C   0  0  2  0  0  0  0  0  0  0  0  0
   -3.2880   25.9440   13.8620 N   0  0  0  0  0  0  0  0  0  0  0  0
   -4.6120   25.5300   14.3550 C   0  0  0  0  0  0  0  0  0  0  0  0
   -4.5830   24.8360   15.7290 C   0  0  0  0  0  0  0  0  0  0  0  0
   -3.5870   23.7280   15.6790 C   0  0  0  0  0  0  0  0  0  0  0  0
   -3.7220   22.4110   15.8770 C   0  0  0  0  0  0  0  0  0  0  0  0
   -4.7850   21.5490   16.2840 C   0  0  0  0  0  0  0  0  0  0  0  0
   -4.5580   20.2240   16.3010 C   0  0  0  0  0  0  0  0  0  0  0  0
   -3.2740   19.6550   15.9110 C   0  0  0  0  0  0  0  0  0  0  0  0
   -2.2320   20.3960   15.4960 C   0  0  0  0  0  0  0  0  0  0  0  0
   -2.4220   21.8520   15.4510 C   0  0  0  0  0  0  0  0  0  0  0  0
   -1.6090   22.7520   15.0570 N   0  0  0  0  0  0  0  0  0  0  0  0
   -2.2060   24.0920   15.1880 C   0  0  1  0  0  0  0  0  0  0  0  0
   -0.3950   26.6340   14.1010 C   0  0  2  0  0  0  0  0  0  0  0  0
   -0.6990   26.5270   15.4770 O   0  0  0  0  0  0  0  0  0  0  0  0
   -1.0660   27.8370   13.6670 N   0  0  0  0  0  0  0  0  0  0  0  0
   -0.6890   28.1210   12.2920 C   0  0  2  0  0  0  0  0  0  0  0  0
   -1.3970   29.7480   11.9650 S   0  0  0  0  0  0  0  0  0  0  0  0
   -1.1950   27.0490   11.4650 N   0  0  0  0  0  0  0  0  0  0  0  0
   -1.3080   27.2770   10.0100 C   0  0  0  0  0  0  0  0  0  0  0  0
   -0.1540   28.1140    9.4910 C   0  0  0  0  0  0  0  0  0  0  0  0
    1.1750   27.7700    9.7880 C   0  0  0  0  0  0  0  0  0  0  0  0
    2.2320   28.5630    9.3360 C   0  0  0  0  0  0  0  0  0  0  0  0
    1.9650   29.6930    8.5750 C   0  0  0  0  0  0  0  0  0  0  0  0
    2.9780   30.4580    8.1490 F   0  0  0  0  0  0  0  0  0  0  0  0
    0.6620   30.0410    8.2460 C   0  0  0  0  0  0  0  0  0  0  0  0
   -0.3960   29.2510    8.6990 C   0  0  0  0  0  0  0  0  0  0  0  0
   -0.1825   24.6233   13.5438 H   0  0  0  0  0  0  0  0  0  0  0  0
   -2.5863   24.0732   13.1171 H   0  0  0  0  0  0  0  0  0  0  0  0
   -2.9470   26.7490   14.4020 H   0  0  0  0  0  0  0  0  0  0  0  0
   -5.2466   26.4250   14.4335 H   0  0  0  0  0  0  0  0  0  0  0  0
   -5.0019   24.7941   13.6364 H   0  0  0  0  0  0  0  0  0  0  0  0
   -4.2934   25.5604   16.5044 H   0  0  0  0  0  0  0  0  0  0  0  0
   -5.5791   24.4365   15.9703 H   0  0  0  0  0  0  0  0  0  0  0  0
   -5.7635   21.9581   16.5758 H   0  0  0  0  0  0  0  0  0  0  0  0
   -5.3660   19.5487   16.6190 H   0  0  0  0  0  0  0  0  0  0  0  0
   -3.1513   18.5629   15.9587 H   0  0  0  0  0  0  0  0  0  0  0  0
   -1.2786   19.9323   15.2029 H   0  0  0  0  0  0  0  0  0  0  0  0
   -0.6770   22.5760   14.6730 H   0  0  0  0  0  0  0  0  0  0  0  0
   -1.6366   24.7716   15.8391 H   0  0  0  0  0  0  0  0  0  0  0  0
    0.6887   26.6760   13.9168 H   0  0  0  0  0  0  0  0  0  0  0  0
   -1.1550   27.3530   15.7390 H   0  0  0  0  0  0  0  0  0  0  0  0
   -0.6670   28.6070   14.2150 H   0  0  0  0  0  0  0  0  0  0  0  0
    0.3906   28.1590   12.0846 H   0  0  0  0  0  0  0  0  0  0  0  0
   -0.8450   29.9030   10.7560 H   0  0  0  0  0  0  0  0  0  0  0  0
   -1.3063   26.3055    9.4940 H   0  0  0  0  0  0  0  0  0  0  0  0
   -2.2449   27.8197    9.8157 H   0  0  0  0  0  0  0  0  0  0  0  0
    1.3851   26.8682   10.3818 H   0  0  0  0  0  0  0  0  0  0  0  0
    3.2699   28.2938    9.5815 H   0  0  0  0  0  0  0  0  0  0  0  0
    0.4647   30.9327    7.6329 H   0  0  0  0  0  0  0  0  0  0  0  0
   -1.4291   29.5203    8.4340 H   0  0  0  0  0  0  0  0  0  0  0  0
  1  2  2  0
  2  3  1  0
  3  4  1  0
  4  5  1  0
  5  6  1  0
  6  7  1  0
  7  8  1  0
  8  9  2  0
  9 10  1  0
 10 11  2  0
 11 12  1  0
 12 13  2  0
 13 14  1  0
 14 15  2  0
 15 16  1  0
  3 17  1  0
 17 18  1  0
 17 19  1  0
 19 20  1  0
 20 21  1  0
 20 22  1  0
 22 23  1  0
 23 24  1  0
 24 25  2  0
 25 26  1  0
 26 27  2  0
 27 28  1  0
 27 29  1  0
 29 30  2  0
 22  2  1  0
 30 24  1  0
 16  4  1  0
 16  8  1  0
 14  9  1  0
  3 31  1  6
  4 32  1  6
  5 33  1  0
  6 34  1  0
  6 35  1  0
  7 36  1  0
  7 37  1  0
 10 38  1  0
 11 39  1  0
 12 40  1  0
 13 41  1  0
 15 42  1  0
 16 43  1  1
 17 44  1  1
 18 45  1  0
 19 46  1  0
 20 47  1  1
 21 48  1  0
 23 49  1  0
 23 50  1  0
 25 51  1  0
 26 52  1  0
 29 53  1  0
 30 54  1  0
M  CHG  1  15   1
M  END
>  <vina_affinity>  (1) 
-8.699

$$$$
dec_C62017678
     RDKit          3D

 36 37  0  0  0  0  0  0  0  0999 V2000
   -0.7740   28.8130   12.8100 C   0  0  0  0  0  0  0  0  0  0  0  0
   -0.3230   27.9230   11.6460 C   0  0  2  0  0  0  0  0  0  0  0  0
    0.1590   28.6560   10.3990 C   0  0  0  0  0  0  0  0  0  0  0  0
   -0.7530   29.4420    9.6690 C   0  0  0  0  0  0  0  0  0  0  0  0
   -0.3480   30.1420    8.5300 C   0  0  0  0  0  0  0  0  0  0  0  0
    0.9780   30.0720    8.1130 C   0  0  0  0  0  0  0  0  0  0  0  0
    1.4800   30.9350    6.7110 Cl  0  0  0  0  0  0  0  0  0  0  0  0
    1.9000   29.3120    8.8260 C   0  0  0  0  0  0  0  0  0  0  0  0
    1.4930   28.6110    9.9660 C   0  0  0  0  0  0  0  0  0  0  0  0
   -1.3010   26.8730   11.3040 N   0  0  0  0  0  0  0  0  0  0  0  0
   -2.6970   27.1780   11.5970 C   0  0  0  0  0  0  0  0  0  0  0  0
   -0.9110   25.7830   10.5250 C   0  0  0  0  0  0  0  0  0  0  0  0
   -1.1450   25.6740    9.3210 O   0  0  0  0  0  0  0  0  0  0  0  0
   -0.1700   24.6580   11.1480 C   0  0  0  0  0  0  0  0  0  0  0  0
   -0.7110   23.9510   12.2290 C   0  0  0  0  0  0  0  0  0  0  0  0
    0.0040   22.8980   12.8050 C   0  0  0  0  0  0  0  0  0  0  0  0
    1.2680   22.5670   12.3110 C   0  0  0  0  0  0  0  0  0  0  0  0
    2.2300   21.1390   13.0910 Br  0  0  0  0  0  0  0  0  0  0  0  0
    1.8340   23.2910   11.2630 C   0  0  0  0  0  0  0  0  0  0  0  0
    1.1220   24.3470   10.7000 C   0  0  0  0  0  0  0  0  0  0  0  0
    1.7510   25.0560    9.7110 O   0  0  0  0  0  0  0  0  0  0  0  0
   -0.5259   28.3235   13.7633 H   0  0  0  0  0  0  0  0  0  0  0  0
   -0.2587   29.7830   12.7509 H   0  0  0  0  0  0  0  0  0  0  0  0
   -1.8610   28.9711   12.7509 H   0  0  0  0  0  0  0  0  0  0  0  0
    0.5744   27.4338   12.0526 H   0  0  0  0  0  0  0  0  0  0  0  0
   -1.7999   29.5058   10.0005 H   0  0  0  0  0  0  0  0  0  0  0  0
   -1.0737   30.7457    7.9653 H   0  0  0  0  0  0  0  0  0  0  0  0
    2.9474   29.2625    8.4937 H   0  0  0  0  0  0  0  0  0  0  0  0
    2.2275   28.0173   10.5299 H   0  0  0  0  0  0  0  0  0  0  0  0
   -2.8444   27.2102   12.6866 H   0  0  0  0  0  0  0  0  0  0  0  0
   -2.9580   28.1543   11.1627 H   0  0  0  0  0  0  0  0  0  0  0  0
   -3.3414   26.3995   11.1627 H   0  0  0  0  0  0  0  0  0  0  0  0
   -1.7000   24.2250   12.6250 H   0  0  0  0  0  0  0  0  0  0  0  0
   -0.4266   22.3319   13.6441 H   0  0  0  0  0  0  0  0  0  0  0  0
    2.8334   23.0307   10.8844 H   0  0  0  0  0  0  0  0  0  0  0  0
    1.7510   24.4970    8.9020 H   0  0  0  0  0  0  0  0  0  0  0  0
  1  2  1  0
  2  3  1  0
  3  4  2  0
  4  5  1  0
  5  6  2  0
  6  7  1  0
  6  8  1  0
  8  9  2  0
  2 10  1  0
 10 11  1  0
 10 12  1  0
 12 13  2  0
 12 14  1  0
 14 15  2  0
 15 16  1  0
 16 17  2  0
 17 18  1  0
 17 19  1  0
 19 20  2  0
 20 21  1  0
  9  3  1  0
 20 14  1  0
  1 22  1  0
  1 23  1  0
  1 24  1  0
  2 25  1  1
  4 26  1  0
  5 27  1  0
  8 28  1  0
  9 29  1  0
 11 30  1  0
 11 31  1  0
 11 32  1  0
 15 33  1  0
 16 34  1  0
 19 35  1  0
 21 36  1  0
M  END
>  <vina_affinity>  (1) 
-7.109

$$$$
dec_C12497487
     RDKit          3D

 45 48  0  0  0  0  0  0  0  0999 V2000
   -4.8660   24.8090   14.9610 C   0  0  0  0  0  0  0  0  0  0  0  0
   -3.9260   25.6230   14.2440 O   0  0  0  0  0  0  0  0  0  0  0  0
   -2.9040   26.0960   15.0250 C   0  0  0  0  0  0  0  0  0  0  0  0
   -3.0400   26.6790   16.0860 O   0  0  0  0  0  0  0  0  0  0  0  0
   -1.5550   25.8060   14.3420 C   0  0  1  0  0  0  0  0  0  0  0  0
   -0.3960   26.2050   15.2450 C   0  0  0  0  0  0  0  0  0  0  0  0
   -1.4040   24.2550   14.0310 N   0  0  0  0  0  0  0  0  0  0  0  0
   -1.0980   24.0830   12.5380 C   0  0  2  0  0  0  0  0  0  0  0  0
   -0.1220   22.9860   12.2590 C   0  0  0  0  0  0  0  0  0  0  0  0
    1.2170   23.1140   11.9410 C   0  0  0  0  0  0  0  0  0  0  0  0
    1.8550   21.8550   11.7510 C   0  0  0  0  0  0  0  0  0  0  0  0
    0.9870   20.8020   11.9320 C   0  0  0  0  0  0  0  0  0  0  0  0
   -0.5840   21.3330   12.3360 S   0  0  0  0  0  0  0  0  0  0  0  0
   -0.5810   25.4490   12.2060 C   0  0  1  0  0  0  0  0  0  0  0  0
   -0.6660   26.0900   10.8670 C   0  0  0  0  0  0  0  0  0  0  0  0
   -0.7020   25.4630    9.8260 O   0  0  0  0  0  0  0  0  0  0  0  0
   -0.6630   27.4560   11.1480 N   0  0  0  0  0  0  0  0  0  0  0  0
   -0.3980   28.4830   10.1970 C   0  0  0  0  0  0  0  0  0  0  0  0
    0.9040   28.7000    9.7150 C   0  0  0  0  0  0  0  0  0  0  0  0
    1.1700   29.6930    8.7630 C   0  0  0  0  0  0  0  0  0  0  0  0
    0.1430   30.5000    8.2830 C   0  0  0  0  0  0  0  0  0  0  0  0
   -1.1470   30.3230    8.7670 C   0  0  0  0  0  0  0  0  0  0  0  0
   -1.4070   29.3320    9.7150 C   0  0  0  0  0  0  0  0  0  0  0  0
   -2.6430   29.2970   10.2260 F   0  0  0  0  0  0  0  0  0  0  0  0
   -1.0370   27.6670   12.4810 C   0  0  0  0  0  0  0  0  0  0  0  0
   -1.0980   28.6550   13.1820 O   0  0  0  0  0  0  0  0  0  0  0  0
   -1.5540   26.3410   12.9340 C   0  0  2  0  0  0  0  0  0  0  0  0
   -4.7145   24.9402   16.0426 H   0  0  0  0  0  0  0  0  0  0  0  0
   -5.8899   25.1105   14.6949 H   0  0  0  0  0  0  0  0  0  0  0  0
   -4.7140   23.7525   14.6949 H   0  0  0  0  0  0  0  0  0  0  0  0
   -0.6985   26.1009   16.2975 H   0  0  0  0  0  0  0  0  0  0  0  0
    0.4663   25.5520   15.0450 H   0  0  0  0  0  0  0  0  0  0  0  0
   -0.1184   27.2504   15.0450 H   0  0  0  0  0  0  0  0  0  0  0  0
   -0.6590   23.8260   14.6010 H   0  0  0  0  0  0  0  0  0  0  0  0
   -2.2800   23.7680   14.2890 H   0  0  0  0  0  0  0  0  0  0  0  0
   -1.9589   23.7702   11.9289 H   0  0  0  0  0  0  0  0  0  0  0  0
    1.7326   24.0809   11.8453 H   0  0  0  0  0  0  0  0  0  0  0  0
    2.9172   21.7377   11.4901 H   0  0  0  0  0  0  0  0  0  0  0  0
    1.2719   19.7446   11.8286 H   0  0  0  0  0  0  0  0  0  0  0  0
    0.4945   25.3352   12.4071 H   0  0  0  0  0  0  0  0  0  0  0  0
    1.7297   28.0787   10.0921 H   0  0  0  0  0  0  0  0  0  0  0  0
    2.1961   29.8354    8.3931 H   0  0  0  0  0  0  0  0  0  0  0  0
    0.3509   31.2714    7.5269 H   0  0  0  0  0  0  0  0  0  0  0  0
   -1.9637   30.9638    8.4032 H   0  0  0  0  0  0  0  0  0  0  0  0
   -2.6400   26.4058   12.7712 H   0  0  0  0  0  0  0  0  0  0  0  0
  1  2  1  0
  2  3  1  0
  3  4  2  0
  3  5  1  0
  5  6  1  1
  5  7  1  0
  7  8  1  0
  8  9  1  0
  9 10  2  0
 10 11  1  0
 11 12  2  0
 12 13  1  0
  8 14  1  0
 14 15  1  0
 15 16  2  0
 15 17  1  0
 17 18  1  0
 18 19  2  0
 19 20  1  0
 20 21  2  0
 21 22  1  0
 22 23  2  0
 23 24  1  0
 17 25  1  0
 25 26  2  0
 25 27  1  0
 27  5  1  0
 13  9  1  0
 27 14  1  0
 23 18  1  0
  1 28  1  0
  1 29  1  0
  1 30  1  0
  6 31  1  0
  6 32  1  0
  6 33  1  0
  7 34  1  0
  7 35  1  0
  8 36  1  6
 10 37  1  0
 11 38  1  0
 12 39  1  0
 14 40  1  1
 19 41  1  0
 20 42  1  0
 21 43  1  0
 22 44  1  0
 27 45  1  6
M  CHG  1   7   1
M  END
>  <vina_affinity>  (1) 
-7.917

$$$$
dec_C33029044
     RDKit          3D

 46 47  0  0  0  0  0  0  0  0999 V2000
    4.8550   28.2320    6.3160 N   0  0  0  0  0  0  0  0  0  0  0  0
    4.2290   28.6820    7.4330 C   0  0  0  0  0  0  0  0  0  0  0  0
    4.7030   28.5160    8.5450 O   0  0  0  0  0  0  0  0  0  0  0  0
    3.0620   29.3180    7.1440 N   0  0  0  0  0  0  0  0  0  0  0  0
    2.2330   29.9160    8.1710 C   0  0  0  0  0  0  0  0  0  0  0  0
    0.9890   30.6270    7.6330 C   0  0  0  0  0  0  0  0  0  0  0  0
   -0.3400   30.0440    8.1160 C   0  0  0  0  0  0  0  0  0  0  0  0
   -0.6610   30.3700    9.5660 C   0  0  0  0  0  0  0  0  0  0  0  0
   -0.7680   31.5300    9.9580 O   0  0  0  0  0  0  0  0  0  0  0  0
   -0.8330   29.2890   10.4190 N   0  0  0  0  0  0  0  0  0  0  0  0
   -0.7530   27.8830   10.0130 C   0  0  0  0  0  0  0  0  0  0  0  0
   -1.4370   26.9420   11.0150 C   0  0  0  0  0  0  0  0  0  0  0  0
   -0.8480   27.0710   12.3870 N   0  0  0  0  0  0  0  0  0  0  0  0
   -1.7370   26.3110   13.6320 S   0  0  0  0  0  0  0  0  0  0  0  0
   -1.5150   27.0460   14.8580 O   0  0  0  0  0  0  0  0  0  0  0  0
   -3.0710   26.0800   13.1230 O   0  0  0  0  0  0  0  0  0  0  0  0
   -0.9150   24.7500   13.8040 C   0  0  0  0  0  0  0  0  0  0  0  0
   -0.0590   24.2910   12.7980 C   0  0  0  0  0  0  0  0  0  0  0  0
    0.5800   23.0600   12.9510 C   0  0  0  0  0  0  0  0  0  0  0  0
    0.3580   22.2980   14.1000 C   0  0  0  0  0  0  0  0  0  0  0  0
   -0.5070   22.7650   15.0930 C   0  0  0  0  0  0  0  0  0  0  0  0
   -0.7710   21.8190   16.5050 Cl  0  0  0  0  0  0  0  0  0  0  0  0
   -1.1510   23.9890   14.9520 C   0  0  0  0  0  0  0  0  0  0  0  0
   -0.4260   28.4760   12.7310 C   0  0  0  0  0  0  0  0  0  0  0  0
   -1.0890   29.5330   11.8410 C   0  0  0  0  0  0  0  0  0  0  0  0
    4.2500   27.8230    5.6180 H   0  0  0  0  0  0  0  0  0  0  0  0
    5.6580   27.6560    6.5390 H   0  0  0  0  0  0  0  0  0  0  0  0
    2.9530   29.6500    6.1970 H   0  0  0  0  0  0  0  0  0  0  0  0
    1.9069   29.1213    8.8581 H   0  0  0  0  0  0  0  0  0  0  0  0
    2.8464   30.6817    8.6684 H   0  0  0  0  0  0  0  0  0  0  0  0
    1.0346   31.6807    7.9456 H   0  0  0  0  0  0  0  0  0  0  0  0
    1.0058   30.4982    6.5407 H   0  0  0  0  0  0  0  0  0  0  0  0
   -1.1454   30.4456    7.4835 H   0  0  0  0  0  0  0  0  0  0  0  0
   -0.2552   28.9496    8.0444 H   0  0  0  0  0  0  0  0  0  0  0  0
   -1.2409   27.7703    9.0336 H   0  0  0  0  0  0  0  0  0  0  0  0
    0.3111   27.6078    9.9688 H   0  0  0  0  0  0  0  0  0  0  0  0
   -2.5079   27.1888   11.0621 H   0  0  0  0  0  0  0  0  0  0  0  0
   -1.2857   25.9077   10.6726 H   0  0  0  0  0  0  0  0  0  0  0  0
    0.1091   24.8949   11.8941 H   0  0  0  0  0  0  0  0  0  0  0  0
    1.2578   22.6903   12.1675 H   0  0  0  0  0  0  0  0  0  0  0  0
    0.8645   21.3294   14.2234 H   0  0  0  0  0  0  0  0  0  0  0  0
   -1.8358   24.3528   15.7322 H   0  0  0  0  0  0  0  0  0  0  0  0
   -0.6980   28.6778   13.7776 H   0  0  0  0  0  0  0  0  0  0  0  0
    0.6601   28.5431   12.5699 H   0  0  0  0  0  0  0  0  0  0  0  0
   -2.1750   29.5140   12.0151 H   0  0  0  0  0  0  0  0  0  0  0  0
   -0.6626   30.5132   12.1007 H   0  0  0  0  0  0  0  0  0  0  0  0
  1  2  1  0
  2  3  2  0
  2  4  1  0
  4  5  1  0
  5  6  1  0
  6  7  1  0
  7  8  1  0
  8  9  2  0
  8 10  1  0
 10 11  1  0
 11 12  1  0
 12 13  1  0
 13 14  1  0
 14 15  2  0
 14 16  2  0
 14 17  1  0
 17 18  2  0
 18 19  1  0
 19 20  2  0
 20 21  1  0
 21 22  1  0
 21 23  2  0
 13 24  1  0
 24 25  1  0
 25 10  1  0
 23 17  1  0
  1 26  1  0
  1 27  1  0
  4 28  1  0
  5 29  1  0
  5 30  1  0
  6 31  1  0
  6 32  1  0
  7 33  1  0
  7 34  1  0
 11 35  1  0
 11 36  1  0
 12 37  1  0
 12 38  1  0
 18 39  1  0
 19 40  1  0
 20 41  1  0
 23 42  1  0
 24 43  1  0
 24 44  1  0
 25 45  1  0
 25 46  1  0
M  END
>  <vina_affinity>  (1) 
-7.610

$$$$
dec_C14165151
     RDKit          3D

 51 54  0  0  0  0  0  0  0  0999 V2000
   -3.3070   19.9430   16.5670 C   0  0  0  0  0  0  0  0  0  0  0  0
   -4.6860   20.1120   16.8920 O   0  0  0  0  0  0  0  0  0  0  0  0
   -5.5100   20.1630   15.7990 C   0  0  0  0  0  0  0  0  0  0  0  0
   -5.3310   19.5200   14.7740 O   0  0  0  0  0  0  0  0  0  0  0  0
   -6.6010   21.1830   16.0510 C   0  0  0  0  0  0  0  0  0  0  0  0
   -6.0910   22.4810   17.2050 S   0  0  0  0  0  0  0  0  0  0  0  0
   -5.1450   23.4850   16.1430 C   0  0  0  0  0  0  0  0  0  0  0  0
   -5.6820   24.1940   15.0940 N   0  0  0  0  0  0  0  0  0  0  0  0
   -4.6380   24.7940   14.5860 C   0  0  0  0  0  0  0  0  0  0  0  0
   -3.5180   24.4390   15.2920 N   0  0  0  0  0  0  0  0  0  0  0  0
   -3.8310   23.6470   16.3360 N   0  0  0  0  0  0  0  0  0  0  0  0
   -2.1640   24.9140   14.9830 C   0  0  1  0  0  0  0  0  0  0  0  0
   -1.2940   23.7510   14.5090 C   0  0  0  0  0  0  0  0  0  0  0  0
   -0.6480   22.8890   15.4110 C   0  0  0  0  0  0  0  0  0  0  0  0
    0.1240   21.8180   14.9470 C   0  0  0  0  0  0  0  0  0  0  0  0
    0.2540   21.5760   13.5780 C   0  0  0  0  0  0  0  0  0  0  0  0
    1.2540   20.1990   13.0400 S   0  0  0  0  0  0  0  0  0  0  0  0
    0.3270   19.6800   11.5710 C   0  0  0  0  0  0  0  0  0  0  0  0
   -0.3740   22.4360   12.6750 C   0  0  0  0  0  0  0  0  0  0  0  0
   -1.1450   23.5080   13.1340 C   0  0  0  0  0  0  0  0  0  0  0  0
   -2.2150   26.0390   13.9590 C   0  0  0  0  0  0  0  0  0  0  0  0
   -3.3470   26.3450   13.2870 C   0  0  0  0  0  0  0  0  0  0  0  0
   -3.4000   27.4170   12.2260 C   0  0  0  0  0  0  0  0  0  0  0  0
   -2.0150   27.6950   11.6300 C   0  0  1  0  0  0  0  0  0  0  0  0
   -2.0710   28.8610   10.6460 C   0  0  0  0  0  0  0  0  0  0  0  0
   -1.0050   27.9670   12.7420 C   0  0  0  0  0  0  0  0  0  0  0  0
   -0.9920   26.8610   13.7760 C   0  0  0  0  0  0  0  0  0  0  0  0
   -0.0200   26.6940   14.5110 O   0  0  0  0  0  0  0  0  0  0  0  0
   -4.5240   25.6640   13.5610 N   0  0  0  0  0  0  0  0  0  0  0  0
   -2.7182   19.8708   17.4933 H   0  0  0  0  0  0  0  0  0  0  0  0
   -3.1791   19.0225   15.9786 H   0  0  0  0  0  0  0  0  0  0  0  0
   -2.9606   20.8054   15.9786 H   0  0  0  0  0  0  0  0  0  0  0  0
   -6.8734   21.6507   15.0934 H   0  0  0  0  0  0  0  0  0  0  0  0
   -7.4531   20.6534   16.5022 H   0  0  0  0  0  0  0  0  0  0  0  0
   -1.7070   25.3228   15.8963 H   0  0  0  0  0  0  0  0  0  0  0  0
   -0.7501   23.0577   16.4932 H   0  0  0  0  0  0  0  0  0  0  0  0
    0.6331   21.1608   15.6674 H   0  0  0  0  0  0  0  0  0  0  0  0
   -0.5937   19.1645   11.8816 H   0  0  0  0  0  0  0  0  0  0  0  0
    0.0674   20.5640   10.9700 H   0  0  0  0  0  0  0  0  0  0  0  0
    0.9449   18.9966   10.9700 H   0  0  0  0  0  0  0  0  0  0  0  0
   -0.2612   22.2687   11.5937 H   0  0  0  0  0  0  0  0  0  0  0  0
   -1.6413   24.1696   12.4088 H   0  0  0  0  0  0  0  0  0  0  0  0
   -4.0748   27.0891   11.4216 H   0  0  0  0  0  0  0  0  0  0  0  0
   -3.7642   28.3438   12.6933 H   0  0  0  0  0  0  0  0  0  0  0  0
   -1.6884   26.8028   11.0756 H   0  0  0  0  0  0  0  0  0  0  0  0
   -2.1165   29.8087   11.2026 H   0  0  0  0  0  0  0  0  0  0  0  0
   -1.1713   28.8503   10.0132 H   0  0  0  0  0  0  0  0  0  0  0  0
   -2.9655   28.7641   10.0132 H   0  0  0  0  0  0  0  0  0  0  0  0
   -0.0019   28.0510   12.2985 H   0  0  0  0  0  0  0  0  0  0  0  0
   -1.2956   28.9009   13.2454 H   0  0  0  0  0  0  0  0  0  0  0  0
   -5.3710   25.9720   13.0890 H   0  0  0  0  0  0  0  0  0  0  0  0
  1  2  1  0
  2  3  1  0
  3  4  2  0
  3  5  1  0
  5  6  1  0
  6  7  1  0
  7  8  1  0
  8  9  2  0
  9 10  1  0
 10 11  1  0
 10 12  1  0
 12 13  1  0
 13 14  2  0
 14 15  1  0
 15 16  2  0
 16 17  1  0
 17 18  1  0
 16 19  1  0
 19 20  2  0
 12 21  1  0
 21 22  2  0
 22 23  1  0
 23 24  1  0
 24 25  1  0
 24 26  1  0
 26 27  1  0
 27 28  2  0
 22 29  1  0
 11  7  2  0
 20 13  1  0
 27 21  1  0
 29  9  1  0
  1 30  1  0
  1 31  1  0
  1 32  1  0
  5 33  1  0
  5 34  1  0
 12 35  1  1
 14 36  1  0
 15 37  1  0
 18 38  1  0
 18 39  1  0
 18 40  1  0
 19 41  1  0
 20 42  1  0
 23 43  1  0
 23 44  1  0
 24 45  1  6
 25 46  1  0
 25 47  1  0
 25 48  1  0
 26 49  1  0
 26 50  1  0
 29 51  1  0
M  END
>  <vina_affinity>  (1) 
-6.674

$$$$
dec_C00187765
     RDKit          3D

 43 46  0  0  0  0  0  0  0  0999 V2000
   -2.6990   24.0870   15.0090 C   0  0  0  0  0  0  0  0  0  0  0  0
   -1.8840   24.1070   13.8410 O   0  0  0  0  0  0  0  0  0  0  0  0
   -1.4640   25.3360   13.4060 C   0  0  0  0  0  0  0  0  0  0  0  0
   -1.2120   26.4520   14.1990 C   0  0  0  0  0  0  0  0  0  0  0  0
   -0.7830   27.6510   13.6120 C   0  0  0  0  0  0  0  0  0  0  0  0
   -0.5940   27.7530   12.2200 C   0  0  0  0  0  0  0  0  0  0  0  0
   -0.1600   29.0670   11.6060 C   0  0  2  0  0  0  0  0  0  0  0  0
   -1.3160   29.7930   11.0560 N   0  0  0  0  0  0  0  0  0  0  0  0
   -0.9650   31.0730   10.2580 C   0  0  2  0  0  0  0  0  0  0  0  0
   -2.2530   31.8760    9.9690 C   0  0  0  0  0  0  0  0  0  0  0  0
   -2.7130   31.5680    8.8230 O   0  0  0  0  0  0  0  0  0  0  0  0
   -2.6300   32.6930   10.8360 O   0  0  0  0  0  0  0  0  0  0  0  0
   -0.1720   30.6900    8.9990 C   0  0  0  0  0  0  0  0  0  0  0  0
    0.8800   29.6730    9.3370 C   0  0  0  0  0  0  0  0  0  0  0  0
    0.8580   28.9430   10.5150 C   0  0  0  0  0  0  0  0  0  0  0  0
    1.9490   28.1140   10.5190 N   0  0  0  0  0  0  0  0  0  0  0  0
    2.6670   28.2830    9.3550 C   0  0  0  0  0  0  0  0  0  0  0  0
    3.8370   27.6470    8.9220 C   0  0  0  0  0  0  0  0  0  0  0  0
    4.3560   28.0200    7.6790 C   0  0  0  0  0  0  0  0  0  0  0  0
    3.7300   28.9910    6.9010 C   0  0  0  0  0  0  0  0  0  0  0  0
    2.5610   29.6170    7.3460 C   0  0  0  0  0  0  0  0  0  0  0  0
    2.0180   29.2590    8.5950 C   0  0  0  0  0  0  0  0  0  0  0  0
   -0.8600   26.6260   11.4270 C   0  0  0  0  0  0  0  0  0  0  0  0
   -1.2820   25.4420   12.0240 C   0  0  0  0  0  0  0  0  0  0  0  0
   -1.5200   24.3690   11.2110 O   0  0  0  0  0  0  0  0  0  0  0  0
   -2.0586   24.1027   15.9032 H   0  0  0  0  0  0  0  0  0  0  0  0
   -3.3559   24.9693   15.0129 H   0  0  0  0  0  0  0  0  0  0  0  0
   -3.3118   23.1735   15.0129 H   0  0  0  0  0  0  0  0  0  0  0  0
   -1.3497   26.3931   15.2888 H   0  0  0  0  0  0  0  0  0  0  0  0
   -0.5908   28.5267   14.2494 H   0  0  0  0  0  0  0  0  0  0  0  0
    0.3084   29.6132   12.4380 H   0  0  0  0  0  0  0  0  0  0  0  0
   -2.0210   30.1230   11.7390 H   0  0  0  0  0  0  0  0  0  0  0  0
   -1.8740   29.2050   10.4280 H   0  0  0  0  0  0  0  0  0  0  0  0
   -0.3145   31.7378   10.8452 H   0  0  0  0  0  0  0  0  0  0  0  0
   -0.8593   30.2669    8.2516 H   0  0  0  0  0  0  0  0  0  0  0  0
    0.3155   31.5895    8.5949 H   0  0  0  0  0  0  0  0  0  0  0  0
    2.1930   27.4500   11.2430 H   0  0  0  0  0  0  0  0  0  0  0  0
    4.3302   26.8809    9.5383 H   0  0  0  0  0  0  0  0  0  0  0  0
    5.2736   27.5390    7.3092 H   0  0  0  0  0  0  0  0  0  0  0  0
    4.1592   29.2683    5.9269 H   0  0  0  0  0  0  0  0  0  0  0  0
    2.0704   30.3818    6.7261 H   0  0  0  0  0  0  0  0  0  0  0  0
   -0.7351   26.6786   10.3354 H   0  0  0  0  0  0  0  0  0  0  0  0
   -2.2660   24.6380   10.6390 H   0  0  0  0  0  0  0  0  0  0  0  0
  1  2  1  0
  2  3  1  0
  3  4  2  0
  4  5  1  0
  5  6  2  0
  6  7  1  0
  7  8  1  0
  8  9  1  0
  9 10  1  0
 10 11  2  0
 10 12  1  0
  9 13  1  0
 13 14  1  0
 14 15  2  0
 15 16  1  0
 16 17  1  0
 17 18  2  0
 18 19  1  0
 19 20  2  0
 20 21  1  0
 21 22  2  0
  6 23  1  0
 23 24  2  0
 24 25  1  0
 24  3  1  0
 15  7  1  0
 22 17  1  0
 22 14  1  0
  1 26  1  0
  1 27  1  0
  1 28  1  0
  4 29  1  0
  5 30  1  0
  7 31  1  1
  8 32  1  0
  8 33  1  0
  9 34  1  1
 13 35  1  0
 13 36  1  0
 16 37  1  0
 18 38  1  0
 19 39  1  0
 20 40  1  0
 21 41  1  0
 23 42  1  0
 25 43  1  0
M  CHG  2   8   1  12  -1
M  END
>  <vina_affinity>  (1) 
-8.749

$$$$
dec_C62627259
     RDKit          3D

 44 45  0  0  0  0  0  0  0  0999 V2000
   -2.9940   25.1760   14.9330 C   0  0  0  0  0  0  0  0  0  0  0  0
   -1.4990   24.9850   14.6700 C   0  0  0  0  0  0  0  0  0  0  0  0
   -0.7680   26.3180   14.8350 C   0  0  0  0  0  0  0  0  0  0  0  0
   -1.2880   24.3750   13.2720 C   0  0  0  0  0  0  0  0  0  0  0  0
   -0.0130   23.6800   13.1320 N   0  0  0  0  0  0  0  0  0  0  0  0
    0.2470   22.5520   14.0160 C   0  0  0  0  0  0  0  0  0  0  0  0
    0.9380   24.2080   12.2570 C   0  0  0  0  0  0  0  0  0  0  0  0
    2.1460   23.9790   12.3360 O   0  0  0  0  0  0  0  0  0  0  0  0
    0.4920   25.1760   11.1310 C   0  0  0  0  0  0  0  0  0  0  0  0
    0.0150   24.7580   10.0900 O   0  0  0  0  0  0  0  0  0  0  0  0
    0.7530   26.4870   11.4910 N   0  0  0  0  0  0  0  0  0  0  0  0
    0.4800   27.6760   10.7750 C   0  0  0  0  0  0  0  0  0  0  0  0
   -0.7460   28.3290   10.9140 C   0  0  0  0  0  0  0  0  0  0  0  0
   -0.9950   29.5080   10.2260 C   0  0  0  0  0  0  0  0  0  0  0  0
   -0.0200   30.0670    9.4010 C   0  0  0  0  0  0  0  0  0  0  0  0
   -0.4270   31.2350    8.7980 O   0  0  0  0  0  0  0  0  0  0  0  0
   -1.5170   31.9000    9.4200 C   0  0  0  0  0  0  0  0  0  0  0  0
   -2.5880   31.9110    8.5860 F   0  0  0  0  0  0  0  0  0  0  0  0
   -1.1430   33.2040    9.5580 F   0  0  0  0  0  0  0  0  0  0  0  0
    1.2130   29.4330    9.2000 C   0  0  0  0  0  0  0  0  0  0  0  0
    2.1110   29.9660    8.3390 N   0  0  0  0  0  0  0  0  0  0  0  0
    3.2970   29.3540    8.1490 C   0  0  0  0  0  0  0  0  0  0  0  0
    3.6560   28.1910    8.7860 C   0  0  0  0  0  0  0  0  0  0  0  0
    2.7380   27.6260    9.6620 C   0  0  0  0  0  0  0  0  0  0  0  0
    1.4740   28.2240    9.9010 C   0  0  0  0  0  0  0  0  0  0  0  0
   -3.1755   25.1992   16.0177 H   0  0  0  0  0  0  0  0  0  0  0  0
   -3.3269   26.1240   14.4852 H   0  0  0  0  0  0  0  0  0  0  0  0
   -3.5545   24.3422   14.4852 H   0  0  0  0  0  0  0  0  0  0  0  0
   -1.0758   24.2834   15.4040 H   0  0  0  0  0  0  0  0  0  0  0  0
   -0.6465   26.5395   15.9056 H   0  0  0  0  0  0  0  0  0  0  0  0
    0.2217   26.2548   14.3590 H   0  0  0  0  0  0  0  0  0  0  0  0
   -1.3533   27.1185   14.3590 H   0  0  0  0  0  0  0  0  0  0  0  0
   -2.0995   23.6582   13.0777 H   0  0  0  0  0  0  0  0  0  0  0  0
   -1.2871   25.2057   12.5509 H   0  0  0  0  0  0  0  0  0  0  0  0
    0.1711   22.8814   15.0628 H   0  0  0  0  0  0  0  0  0  0  0  0
   -0.4921   21.7596   13.8264 H   0  0  0  0  0  0  0  0  0  0  0  0
    1.2583   22.1631   13.8264 H   0  0  0  0  0  0  0  0  0  0  0  0
    1.2570   26.5540   12.3690 H   0  0  0  0  0  0  0  0  0  0  0  0
   -1.5191   27.9065   11.5727 H   0  0  0  0  0  0  0  0  0  0  0  0
   -1.9701   30.0059   10.3324 H   0  0  0  0  0  0  0  0  0  0  0  0
   -1.7693   31.4048   10.3693 H   0  0  0  0  0  0  0  0  0  0  0  0
    4.0132   29.8087    7.4488 H   0  0  0  0  0  0  0  0  0  0  0  0
    4.6359   27.7237    8.6086 H   0  0  0  0  0  0  0  0  0  0  0  0
    2.9973   26.6925   10.1829 H   0  0  0  0  0  0  0  0  0  0  0  0
  1  2  1  0
  2  3  1  0
  2  4  1  0
  4  5  1  0
  5  6  1  0
  5  7  1  0
  7  8  2  0
  7  9  1  0
  9 10  2  0
  9 11  1  0
 11 12  1  0
 12 13  2  0
 13 14  1  0
 14 15  2  0
 15 16  1  0
 16 17  1  0
 17 18  1  0
 17 19  1  0
 15 20  1  0
 20 21  2  0
 21 22  1  0
 22 23  2  0
 23 24  1  0
 24 25  2  0
 25 12  1  0
 25 20  1  0
  1 26  1  0
  1 27  1  0
  1 28  1  0
  2 29  1  0
  3 30  1  0
  3 31  1  0
  3 32  1  0
  4 33  1  0
  4 34  1  0
  6 35  1  0
  6 36  1  0
  6 37  1  0
 11 38  1  0
 13 39  1  0
 14 40  1  0
 17 41  1  0
 22 42  1  0
 23 43  1  0
 24 44  1  0
M  END
>  <vina_affinity>  (1) 
-7.459

$$$$
dec_C19812047
     RDKit          3D

 54 58  0  0  0  0  0  0  0  0999 V2000
   -0.8990   27.4430   13.8140 C   0  0  0  0  0  0  0  0  0  0  0  0
   -1.3520   26.9370   12.4920 C   0  0  0  0  0  0  0  0  0  0  0  0
   -2.6570   26.9090   12.2030 N   0  0  0  0  0  0  0  0  0  0  0  0
   -2.6980   26.3920   10.9670 N   0  0  0  0  0  0  0  0  0  0  0  0
   -1.4720   26.0880   10.4490 C   0  0  0  0  0  0  0  0  0  0  0  0
   -1.3900   25.5680    9.2310 O   0  0  0  0  0  0  0  0  0  0  0  0
   -0.5450   26.4310   11.4200 C   0  0  0  0  0  0  0  0  0  0  0  0
    0.9650   26.3220   11.4400 C   0  0  1  0  0  0  0  0  0  0  0  0
    1.4240   24.8920   11.3150 C   0  0  0  0  0  0  0  0  0  0  0  0
    2.2720   24.3800   10.3220 C   0  0  0  0  0  0  0  0  0  0  0  0
    2.8530   24.9990    9.3000 O   0  0  0  0  0  0  0  0  0  0  0  0
    2.5480   23.0910   10.4240 N   0  0  0  0  0  0  0  0  0  0  0  0
    1.8660   22.7380   11.5280 N   0  0  0  0  0  0  0  0  0  0  0  0
    1.1670   23.7720   12.0990 C   0  0  0  0  0  0  0  0  0  0  0  0
    0.3550   23.5760   13.3240 C   0  0  0  0  0  0  0  0  0  0  0  0
    1.6550   27.2660   10.4690 C   0  0  0  0  0  0  0  0  0  0  0  0
    2.9800   27.2740   10.0700 C   0  0  0  0  0  0  0  0  0  0  0  0
    3.1670   28.2810    9.1570 N   0  0  0  0  0  0  0  0  0  0  0  0
    4.4490   28.5680    8.5210 C   0  0  0  0  0  0  0  0  0  0  0  0
    4.6340   27.7630    7.2580 C   0  0  0  0  0  0  0  0  0  0  0  0
    5.3380   26.5490    7.2750 C   0  0  0  0  0  0  0  0  0  0  0  0
    5.5130   25.8130    6.1020 C   0  0  0  0  0  0  0  0  0  0  0  0
    4.9830   26.2790    4.9010 C   0  0  0  0  0  0  0  0  0  0  0  0
    4.2790   27.4810    4.8700 C   0  0  0  0  0  0  0  0  0  0  0  0
    4.1050   28.2200    6.0420 C   0  0  0  0  0  0  0  0  0  0  0  0
    1.9870   28.9680    8.9610 C   0  0  0  0  0  0  0  0  0  0  0  0
    1.6770   30.0670    8.1430 C   0  0  0  0  0  0  0  0  0  0  0  0
    0.3650   30.5480    8.1490 C   0  0  0  0  0  0  0  0  0  0  0  0
   -0.6090   29.9560    8.9430 C   0  0  0  0  0  0  0  0  0  0  0  0
   -0.2940   28.8630    9.7560 C   0  0  0  0  0  0  0  0  0  0  0  0
    1.0240   28.3560    9.7720 C   0  0  0  0  0  0  0  0  0  0  0  0
   -1.4025   26.8805   14.6140 H   0  0  0  0  0  0  0  0  0  0  0  0
    0.1896   27.3124   13.9032 H   0  0  0  0  0  0  0  0  0  0  0  0
   -1.1488   28.5106   13.9032 H   0  0  0  0  0  0  0  0  0  0  0  0
   -3.5960   26.2690   10.5160 H   0  0  0  0  0  0  0  0  0  0  0  0
   -1.8880   26.1460    8.6210 H   0  0  0  0  0  0  0  0  0  0  0  0
    1.2876   26.6676   12.4332 H   0  0  0  0  0  0  0  0  0  0  0  0
    3.7780   25.1060    9.5780 H   0  0  0  0  0  0  0  0  0  0  0  0
    1.9210   21.7740   11.8400 H   0  0  0  0  0  0  0  0  0  0  0  0
    0.9871   23.7286   14.2112 H   0  0  0  0  0  0  0  0  0  0  0  0
   -0.4730   24.3001   13.3348 H   0  0  0  0  0  0  0  0  0  0  0  0
   -0.0515   22.5539   13.3348 H   0  0  0  0  0  0  0  0  0  0  0  0
    3.7584   26.5838   10.4274 H   0  0  0  0  0  0  0  0  0  0  0  0
    4.4923   29.6385    8.2718 H   0  0  0  0  0  0  0  0  0  0  0  0
    5.2506   28.2959    9.2234 H   0  0  0  0  0  0  0  0  0  0  0  0
    5.7556   26.1742    8.2211 H   0  0  0  0  0  0  0  0  0  0  0  0
    6.0697   24.8646    6.1260 H   0  0  0  0  0  0  0  0  0  0  0  0
    5.1203   25.6980    3.9771 H   0  0  0  0  0  0  0  0  0  0  0  0
    3.8599   27.8481    3.9215 H   0  0  0  0  0  0  0  0  0  0  0  0
    3.5485   29.1683    6.0113 H   0  0  0  0  0  0  0  0  0  0  0  0
    2.4472   30.5370    7.5138 H   0  0  0  0  0  0  0  0  0  0  0  0
    0.0998   31.4076    7.5160 H   0  0  0  0  0  0  0  0  0  0  0  0
   -1.6359   30.3501    8.9320 H   0  0  0  0  0  0  0  0  0  0  0  0
   -1.0708   28.3991   10.3816 H   0  0  0  0  0  0  0  0  0  0  0  0
  1  2  1  0
  2  3  2  0
  3  4  1  0
  4  5  1  0
  5  6  1  0
  5  7  2  0
  7  8  1  0
  8  9  1  0
  9 10  1  0
 10 11  1  0
 10 12  2  0
 12 13  1  0
 13 14  1  0
 14 15  1  0
  8 16  1  0
 16 17  2  0
 17 18  1  0
 18 19  1  0
 19 20  1  0
 20 21  2  0
 21 22  1  0
 22 23  2  0
 23 24  1  0
 24 25  2  0
 18 26  1  0
 26 27  2  0
 27 28  1  0
 28 29  2  0
 29 30  1  0
 30 31  2  0
  7  2  1  0
 14  9  2  0
 31 16  1  0
 25 20  1  0
 31 26  1  0
  1 32  1  0
  1 33  1  0
  1 34  1  0
  4 35  1  0
  6 36  1  0
  8 37  1  1
 11 38  1  0
 13 39  1  0
 15 40  1  0
 15 41  1  0
 15 42  1  0
 17 43  1  0
 19 44  1  0
 19 45  1  0
 21 46  1  0
 22 47  1  0
 23 48  1  0
 24 49  1  0
 25 50  1  0
 27 51  1  0
 28 52  1  0
 29 53  1  0
 30 54  1  0
M  END
>  <vina_affinity>  (1) 
-9.463

$$$$
dec_C12669941
     RDKit          3D

 47 47  0  0  0  0  0  0  0  0999 V2000
   -3.3460   30.8220    9.3950 C   0  0  0  0  0  0  0  0  0  0  0  0
   -1.9550   31.4720    9.3290 C   0  0  0  0  0  0  0  0  0  0  0  0
   -1.8960   32.5850   10.3850 C   0  0  0  0  0  0  0  0  0  0  0  0
   -0.8200   30.4300    9.5170 C   0  0  2  0  0  0  0  0  0  0  0  0
   -0.1150   30.0570    8.2120 C   0  0  0  0  0  0  0  0  0  0  0  0
   -1.4140   29.1560   10.0930 N   0  0  0  0  0  0  0  0  0  0  0  0
   -0.7640   28.6670   11.3810 C   0  0  2  0  0  0  0  0  0  0  0  0
    0.2870   29.6870   11.8000 C   0  0  0  0  0  0  0  0  0  0  0  0
   -0.1970   27.2450   11.1970 C   0  0  0  0  0  0  0  0  0  0  0  0
   -0.1280   26.7300   10.0840 O   0  0  0  0  0  0  0  0  0  0  0  0
    0.3560   26.6650   12.3260 N   0  0  0  0  0  0  0  0  0  0  0  0
    0.6580   25.2320   12.2910 C   0  0  0  0  0  0  0  0  0  0  0  0
   -0.6130   24.4930   12.7350 C   0  0  0  0  0  0  0  0  0  0  0  0
   -1.1450   23.6860   11.9730 O   0  0  0  0  0  0  0  0  0  0  0  0
   -1.0310   24.8300   14.0070 N   0  0  0  0  0  0  0  0  0  0  0  0
   -2.2560   24.4460   14.6030 C   0  0  0  0  0  0  0  0  0  0  0  0
   -3.3560   25.2950   14.3990 C   0  0  0  0  0  0  0  0  0  0  0  0
   -4.6010   24.9910   14.9610 C   0  0  0  0  0  0  0  0  0  0  0  0
   -4.7550   23.8310   15.7110 C   0  0  0  0  0  0  0  0  0  0  0  0
   -5.9510   23.5480   16.2420 F   0  0  0  0  0  0  0  0  0  0  0  0
   -3.6860   22.9660   15.8930 C   0  0  0  0  0  0  0  0  0  0  0  0
   -3.8550   21.8280   16.5820 F   0  0  0  0  0  0  0  0  0  0  0  0
   -2.4460   23.2630   15.3360 C   0  0  0  0  0  0  0  0  0  0  0  0
   -1.4740   22.3460   15.4410 F   0  0  0  0  0  0  0  0  0  0  0  0
   -3.6375   30.6858   10.4469 H   0  0  0  0  0  0  0  0  0  0  0  0
   -4.0783   31.4712    8.8927 H   0  0  0  0  0  0  0  0  0  0  0  0
   -3.3178   29.8438    8.8927 H   0  0  0  0  0  0  0  0  0  0  0  0
   -1.7962   31.9050    8.3304 H   0  0  0  0  0  0  0  0  0  0  0  0
   -1.9197   32.1385   11.3900 H   0  0  0  0  0  0  0  0  0  0  0  0
   -0.9661   33.1594   10.2608 H   0  0  0  0  0  0  0  0  0  0  0  0
   -2.7599   33.2545   10.2608 H   0  0  0  0  0  0  0  0  0  0  0  0
   -0.0778   30.8915   10.1850 H   0  0  0  0  0  0  0  0  0  0  0  0
    0.8362   29.5537    8.4400 H   0  0  0  0  0  0  0  0  0  0  0  0
   -0.7571   29.3806    7.6287 H   0  0  0  0  0  0  0  0  0  0  0  0
    0.0830   30.9684    7.6287 H   0  0  0  0  0  0  0  0  0  0  0  0
   -2.4080   29.2970   10.3050 H   0  0  0  0  0  0  0  0  0  0  0  0
   -1.3810   28.4150    9.3800 H   0  0  0  0  0  0  0  0  0  0  0  0
   -1.5045   28.5868   12.1905 H   0  0  0  0  0  0  0  0  0  0  0  0
    0.3353   29.7338   12.8979 H   0  0  0  0  0  0  0  0  0  0  0  0
    1.2678   29.3873   11.4023 H   0  0  0  0  0  0  0  0  0  0  0  0
    0.0168   30.6764   11.4023 H   0  0  0  0  0  0  0  0  0  0  0  0
   -0.0630   26.9200   13.2170 H   0  0  0  0  0  0  0  0  0  0  0  0
    0.9337   24.9291   11.2701 H   0  0  0  0  0  0  0  0  0  0  0  0
    1.5024   24.9930   12.9542 H   0  0  0  0  0  0  0  0  0  0  0  0
   -0.3300   25.2130   14.6330 H   0  0  0  0  0  0  0  0  0  0  0  0
   -3.2381   26.2055   13.7931 H   0  0  0  0  0  0  0  0  0  0  0  0
   -5.4549   25.6678   14.8097 H   0  0  0  0  0  0  0  0  0  0  0  0
  1  2  1  0
  2  3  1  0
  2  4  1  0
  4  5  1  0
  4  6  1  0
  6  7  1  0
  7  8  1  0
  7  9  1  0
  9 10  2  0
  9 11  1  0
 11 12  1  0
 12 13  1  0
 13 14  2  0
 13 15  1  0
 15 16  1  0
 16 17  2  0
 17 18  1  0
 18 19  2  0
 19 20  1  0
 19 21  1  0
 21 22  1  0
 21 23  2  0
 23 24  1  0
 23 16  1  0
  1 25  1  0
  1 26  1  0
  1 27  1  0
  2 28  1  0
  3 29  1  0
  3 30  1  0
  3 31  1  0
  4 32  1  1
  5 33  1  0
  5 34  1  0
  5 35  1  0
  6 36  1  0
  6 37  1  0
  7 38  1  1
  8 39  1  0
  8 40  1  0
  8 41  1  0
 11 42  1  0
 12 43  1  0
 12 44  1  0
 15 45  1  0
 17 46  1  0
 18 47  1  0
M  CHG  1   6   1
M  END
>  <vina_affinity>  (1) 
-7.381

$$$$
dec_C23557501
     RDKit          3D

 48 50  0  0  0  0  0  0  0  0999 V2000
   -6.6160   22.4590   17.1530 C   0  0  0  0  0  0  0  0  0  0  0  0
   -5.2120   22.0370   16.8870 C   0  0  0  0  0  0  0  0  0  0  0  0
   -4.5960   20.8480   17.2120 C   0  0  0  0  0  0  0  0  0  0  0  0
   -3.2330   20.8150   16.7900 C   0  0  0  0  0  0  0  0  0  0  0  0
   -2.8450   21.9780   16.1480 C   0  0  0  0  0  0  0  0  0  0  0  0
   -1.5630   22.3520   15.5680 C   0  0  0  0  0  0  0  0  0  0  0  0
   -0.5340   22.5650   16.2100 O   0  0  0  0  0  0  0  0  0  0  0  0
   -1.5570   22.5260   14.1990 N   0  0  0  0  0  0  0  0  0  0  0  0
   -0.3460   22.8790   13.4740 C   0  0  0  0  0  0  0  0  0  0  0  0
   -0.4020   24.2650   12.8260 C   0  0  0  0  0  0  0  0  0  0  0  0
    0.6130   24.8480   12.4440 O   0  0  0  0  0  0  0  0  0  0  0  0
   -1.6640   24.8280   12.8040 N   0  0  0  0  0  0  0  0  0  0  0  0
   -1.7570   26.1740   12.4920 N   0  0  0  0  0  0  0  0  0  0  0  0
   -1.5240   27.1710   13.4010 C   0  0  0  0  0  0  0  0  0  0  0  0
   -1.3440   27.0680   14.6040 O   0  0  0  0  0  0  0  0  0  0  0  0
   -1.5170   28.3710   12.7150 N   0  0  0  0  0  0  0  0  0  0  0  0
   -1.5740   28.1790   11.2740 C   0  0  1  0  0  0  0  0  0  0  0  0
   -2.7800   28.9050   10.6620 C   0  0  0  0  0  0  0  0  0  0  0  0
   -2.3870   30.2900   10.1580 C   0  0  0  0  0  0  0  0  0  0  0  0
   -1.3360   30.2110    9.0360 C   0  0  1  0  0  0  0  0  0  0  0  0
   -0.5500   31.5200    8.9600 C   0  0  0  0  0  0  0  0  0  0  0  0
   -0.3970   28.9990    9.1820 C   0  0  0  0  0  0  0  0  0  0  0  0
   -0.2270   28.5640   10.6360 C   0  0  0  0  0  0  0  0  0  0  0  0
   -1.7720   26.6460   11.2020 C   0  0  0  0  0  0  0  0  0  0  0  0
   -1.8950   25.9950   10.1720 O   0  0  0  0  0  0  0  0  0  0  0  0
   -4.1420   23.1010   16.0850 S   0  0  0  0  0  0  0  0  0  0  0  0
   -6.7842   22.5096   18.2389 H   0  0  0  0  0  0  0  0  0  0  0  0
   -6.7916   23.4496   16.7082 H   0  0  0  0  0  0  0  0  0  0  0  0
   -7.3087   21.7294   16.7082 H   0  0  0  0  0  0  0  0  0  0  0  0
   -5.0966   20.0204   17.7359 H   0  0  0  0  0  0  0  0  0  0  0  0
   -2.5636   19.9582   16.9569 H   0  0  0  0  0  0  0  0  0  0  0  0
   -2.4360   22.5880   13.7040 H   0  0  0  0  0  0  0  0  0  0  0  0
    0.4993   22.8579   14.1776 H   0  0  0  0  0  0  0  0  0  0  0  0
   -0.2317   22.1470   12.6609 H   0  0  0  0  0  0  0  0  0  0  0  0
   -2.3680   24.4670   13.4520 H   0  0  0  0  0  0  0  0  0  0  0  0
   -1.2550   29.2260   13.1890 H   0  0  0  0  0  0  0  0  0  0  0  0
   -3.1671   28.3124    9.8200 H   0  0  0  0  0  0  0  0  0  0  0  0
   -3.5503   29.0205   11.4387 H   0  0  0  0  0  0  0  0  0  0  0  0
   -3.2838   30.7963    9.7713 H   0  0  0  0  0  0  0  0  0  0  0  0
   -1.9498   30.8492   10.9983 H   0  0  0  0  0  0  0  0  0  0  0  0
   -1.8758   30.0634    8.0890 H   0  0  0  0  0  0  0  0  0  0  0  0
   -0.3349   31.8782    9.9776 H   0  0  0  0  0  0  0  0  0  0  0  0
    0.3952   31.3495    8.4239 H   0  0  0  0  0  0  0  0  0  0  0  0
   -1.1447   32.2742    8.4239 H   0  0  0  0  0  0  0  0  0  0  0  0
   -0.8142   28.1582    8.6085 H   0  0  0  0  0  0  0  0  0  0  0  0
    0.5925   29.2947    8.8033 H   0  0  0  0  0  0  0  0  0  0  0  0
    0.4464   27.6949   10.6721 H   0  0  0  0  0  0  0  0  0  0  0  0
    0.1919   29.4096   11.2012 H   0  0  0  0  0  0  0  0  0  0  0  0
  1  2  1  0
  2  3  2  0
  3  4  1  0
  4  5  2  0
  5  6  1  0
  6  7  2  0
  6  8  1  0
  8  9  1  0
  9 10  1  0
 10 11  2  0
 10 12  1  0
 12 13  1  0
 13 14  1  0
 14 15  2  0
 14 16  1  0
 17 16  1  1
 17 18  1  0
 18 19  1  0
 19 20  1  0
 20 21  1  0
 20 22  1  0
 22 23  1  0
 17 24  1  0
 24 25  2  0
  5 26  1  0
 26  2  1  0
 24 13  1  0
 23 17  1  0
  1 27  1  0
  1 28  1  0
  1 29  1  0
  3 30  1  0
  4 31  1  0
  8 32  1  0
  9 33  1  0
  9 34  1  0
 12 35  1  0
 16 36  1  0
 18 37  1  0
 18 38  1  0
 19 39  1  0
 19 40  1  0
 20 41  1  6
 21 42  1  0
 21 43  1  0
 21 44  1  0
 22 45  1  0
 22 46  1  0
 23 47  1  0
 23 48  1  0
M  END
>  <vina_affinity>  (1) 
-8.233

$$$$
dec_C48803832
     RDKit          3D

 50 52  0  0  0  0  0  0  0  0999 V2000
   -1.3800   33.1260    9.9610 C   0  0  0  0  0  0  0  0  0  0  0  0
   -0.8020   31.9200    9.2710 C   0  0  0  0  0  0  0  0  0  0  0  0
    0.3480   32.1240    8.4820 C   0  0  0  0  0  0  0  0  0  0  0  0
    0.9410   31.0790    7.7760 C   0  0  0  0  0  0  0  0  0  0  0  0
    0.3880   29.8080    7.8370 C   0  0  0  0  0  0  0  0  0  0  0  0
   -0.7570   29.5880    8.6020 C   0  0  0  0  0  0  0  0  0  0  0  0
   -1.3790   30.6300    9.3260 C   0  0  0  0  0  0  0  0  0  0  0  0
   -2.6200   30.2550   10.1320 C   0  0  1  0  0  0  0  0  0  0  0  0
   -3.9060   30.5230    9.3520 C   0  0  0  0  0  0  0  0  0  0  0  0
   -2.5770   28.8970   10.6280 N   0  0  0  0  0  0  0  0  0  0  0  0
   -1.7820   28.5260   11.6870 C   0  0  0  0  0  0  0  0  0  0  0  0
   -1.1860   29.2710   12.4530 O   0  0  0  0  0  0  0  0  0  0  0  0
   -1.6710   26.9980   11.8690 C   0  0  0  0  0  0  0  0  0  0  0  0
   -1.7270   26.2850   10.8770 O   0  0  0  0  0  0  0  0  0  0  0  0
   -1.5120   26.6510   13.1930 N   0  0  0  0  0  0  0  0  0  0  0  0
   -1.3760   25.3650   13.7390 C   0  0  0  0  0  0  0  0  0  0  0  0
   -0.2250   24.6460   13.4090 C   0  0  0  0  0  0  0  0  0  0  0  0
   -0.0210   23.3580   13.9170 C   0  0  0  0  0  0  0  0  0  0  0  0
   -0.9630   22.7630   14.7640 C   0  0  0  0  0  0  0  0  0  0  0  0
   -0.6770   21.4620   15.2290 N   0  0  0  0  0  0  0  0  0  0  0  0
   -0.4150   21.0580   16.5320 C   0  0  0  0  0  0  0  0  0  0  0  0
   -0.3950   21.8170   17.4970 O   0  0  0  0  0  0  0  0  0  0  0  0
   -0.1570   19.6270   16.6700 C   0  0  0  0  0  0  0  0  0  0  0  0
   -0.7070   18.4910   16.0950 C   0  0  0  0  0  0  0  0  0  0  0  0
   -0.0220   17.3750   16.6410 C   0  0  0  0  0  0  0  0  0  0  0  0
    0.9040   17.8890   17.5150 C   0  0  0  0  0  0  0  0  0  0  0  0
    0.8320   19.2410   17.5400 O   0  0  0  0  0  0  0  0  0  0  0  0
   -2.1110   23.4840   15.0910 C   0  0  0  0  0  0  0  0  0  0  0  0
   -2.3160   24.7760   14.5820 C   0  0  0  0  0  0  0  0  0  0  0  0
   -1.3153   32.9910   11.0508 H   0  0  0  0  0  0  0  0  0  0  0  0
   -0.8137   34.0224    9.6683 H   0  0  0  0  0  0  0  0  0  0  0  0
   -2.4335   33.2461    9.6683 H   0  0  0  0  0  0  0  0  0  0  0  0
    0.7873   33.1307    8.4222 H   0  0  0  0  0  0  0  0  0  0  0  0
    1.8431   31.2609    7.1733 H   0  0  0  0  0  0  0  0  0  0  0  0
    0.8509   28.9772    7.2842 H   0  0  0  0  0  0  0  0  0  0  0  0
   -1.1874   28.5765    8.6429 H   0  0  0  0  0  0  0  0  0  0  0  0
   -2.6212   30.9118   11.0144 H   0  0  0  0  0  0  0  0  0  0  0  0
   -4.7330   30.6953   10.0565 H   0  0  0  0  0  0  0  0  0  0  0  0
   -3.7722   31.4126    8.7189 H   0  0  0  0  0  0  0  0  0  0  0  0
   -4.1387   29.6541    8.7189 H   0  0  0  0  0  0  0  0  0  0  0  0
   -2.9180   28.1350   10.0500 H   0  0  0  0  0  0  0  0  0  0  0  0
   -1.4850   27.4450   13.8290 H   0  0  0  0  0  0  0  0  0  0  0  0
    0.5273   25.0958   12.7444 H   0  0  0  0  0  0  0  0  0  0  0  0
    0.8915   22.8062   13.6471 H   0  0  0  0  0  0  0  0  0  0  0  0
   -0.6640   20.7430   14.5210 H   0  0  0  0  0  0  0  0  0  0  0  0
   -1.5206   18.4610   15.3553 H   0  0  0  0  0  0  0  0  0  0  0  0
   -0.1971   16.3137   16.4110 H   0  0  0  0  0  0  0  0  0  0  0  0
    1.6057   17.2871   18.1111 H   0  0  0  0  0  0  0  0  0  0  0  0
   -2.8643   23.0353   15.7552 H   0  0  0  0  0  0  0  0  0  0  0  0
   -3.2279   25.3290   14.8514 H   0  0  0  0  0  0  0  0  0  0  0  0
  1  2  1  0
  2  3  2  0
  3  4  1  0
  4  5  2  0
  5  6  1  0
  6  7  2  0
  7  8  1  0
  8  9  1  0
  8 10  1  0
 10 11  1  0
 11 12  2  0
 11 13  1  0
 13 14  2  0
 13 15  1  0
 15 16  1  0
 16 17  2  0
 17 18  1  0
 18 19  2  0
 19 20  1  0
 20 21  1  0
 21 22  2  0
 21 23  1  0
 23 24  2  0
 24 25  1  0
 25 26  2  0
 26 27  1  0
 19 28  1  0
 28 29  2  0
  7  2  1  0
 29 16  1  0
 27 23  1  0
  1 30  1  0
  1 31  1  0
  1 32  1  0
  3 33  1  0
  4 34  1  0
  5 35  1  0
  6 36  1  0
  8 37  1  1
  9 38  1  0
  9 39  1  0
  9 40  1  0
 10 41  1  0
 15 42  1  0
 17 43  1  0
 18 44  1  0
 20 45  1  0
 24 46  1  0
 25 47  1  0
 26 48  1  0
 28 49  1  0
 29 50  1  0
M  END
>  <vina_affinity>  (1) 
-8.599

$$$$
dec_C39684224
     RDKit          3D

 73 78  0  0  0  0  0  0  0  0999 V2000
   -2.6450   32.2660   10.4610 C   0  0  0  0  0  0  0  0  0  0  0  0
   -1.7480   31.1580    9.9890 C   0  0  0  0  0  0  0  0  0  0  0  0
   -1.9910   29.8440   10.4300 C   0  0  0  0  0  0  0  0  0  0  0  0
   -1.1970   28.7740   10.0250 C   0  0  0  0  0  0  0  0  0  0  0  0
   -0.1230   28.9780    9.1550 C   0  0  0  0  0  0  0  0  0  0  0  0
    0.1530   30.2780    8.6880 C   0  0  0  0  0  0  0  0  0  0  0  0
    1.1470   30.8210    7.8100 C   0  0  0  0  0  0  0  0  0  0  0  0
    2.2300   30.0590    7.1200 C   0  0  0  0  0  0  0  0  0  0  0  0
    3.4240   29.7840    8.0370 C   0  0  0  0  0  0  0  0  0  0  0  0
    4.4010   28.9050    7.4100 N   0  0  0  0  0  0  0  0  0  0  0  0
    4.4620   27.5690    7.7170 C   0  0  0  0  0  0  0  0  0  0  0  0
    3.7770   27.0590    8.6020 O   0  0  0  0  0  0  0  0  0  0  0  0
    5.5400   26.7400    7.0250 C   0  0  1  0  0  0  0  0  0  0  0  0
    5.9380   25.4890    7.8090 C   0  0  0  0  0  0  0  0  0  0  0  0
    5.1760   24.4080    7.1900 N   0  0  0  0  0  0  0  0  0  0  0  0
    5.0560   23.0840    7.6140 C   0  0  0  0  0  0  0  0  0  0  0  0
    5.8670   22.2580    7.1880 O   0  0  0  0  0  0  0  0  0  0  0  0
    4.0030   22.7060    8.5400 C   0  0  0  0  0  0  0  0  0  0  0  0
    3.5000   21.4510    8.8300 C   0  0  0  0  0  0  0  0  0  0  0  0
    2.5000   21.6220    9.8150 C   0  0  0  0  0  0  0  0  0  0  0  0
    2.4370   22.9740   10.0860 C   0  0  0  0  0  0  0  0  0  0  0  0
    1.6370   23.7980   10.9920 C   0  0  0  0  0  0  0  0  0  0  0  0
    1.3990   25.1510   10.6990 C   0  0  0  0  0  0  0  0  0  0  0  0
    0.6360   25.9480   11.5570 C   0  0  0  0  0  0  0  0  0  0  0  0
    0.1080   25.3960   12.7160 C   0  0  0  0  0  0  0  0  0  0  0  0
   -0.6230   26.1580   13.5390 F   0  0  0  0  0  0  0  0  0  0  0  0
    0.3280   24.0620   13.0330 C   0  0  0  0  0  0  0  0  0  0  0  0
    1.0900   23.2670   12.1720 C   0  0  0  0  0  0  0  0  0  0  0  0
    3.3540   23.6300    9.3130 O   0  0  0  0  0  0  0  0  0  0  0  0
    4.4670   24.8520    6.0050 C   0  0  0  0  0  0  0  0  0  0  0  0
    5.1120   26.1970    5.6290 C   0  0  0  0  0  0  0  0  0  0  0  0
    6.3800   25.9780    4.7520 C   0  0  0  0  0  0  0  0  0  0  0  0
    6.0710   25.5350    3.3260 C   0  0  0  0  0  0  0  0  0  0  0  0
    5.1130   26.4950    2.7090 N   0  0  0  0  0  0  0  0  0  0  0  0
    3.8330   26.6400    3.4550 C   0  0  0  0  0  0  0  0  0  0  0  0
    4.1320   27.1180    4.8690 C   0  0  0  0  0  0  0  0  0  0  0  0
    0.9110   32.1770    7.7260 C   0  0  0  0  0  0  0  0  0  0  0  0
   -0.1750   32.4710    8.5090 N   0  0  0  0  0  0  0  0  0  0  0  0
   -0.6610   31.3310    9.1120 C   0  0  0  0  0  0  0  0  0  0  0  0
   -2.6589   32.2832   11.5608 H   0  0  0  0  0  0  0  0  0  0  0  0
   -2.2685   33.2283   10.0840 H   0  0  0  0  0  0  0  0  0  0  0  0
   -3.6646   32.0981   10.0840 H   0  0  0  0  0  0  0  0  0  0  0  0
   -2.8319   29.6567   11.1140 H   0  0  0  0  0  0  0  0  0  0  0  0
   -1.4170   27.7609   10.3927 H   0  0  0  0  0  0  0  0  0  0  0  0
    0.5020   28.1304    8.8373 H   0  0  0  0  0  0  0  0  0  0  0  0
    1.8210   29.0981    6.7745 H   0  0  0  0  0  0  0  0  0  0  0  0
    2.5870   30.6706    6.2783 H   0  0  0  0  0  0  0  0  0  0  0  0
    3.9112   30.7393    8.2821 H   0  0  0  0  0  0  0  0  0  0  0  0
    3.0494   29.2850    8.9429 H   0  0  0  0  0  0  0  0  0  0  0  0
    4.9250   29.2840    6.6290 H   0  0  0  0  0  0  0  0  0  0  0  0
    6.3698   27.4575    6.9443 H   0  0  0  0  0  0  0  0  0  0  0  0
    7.0185   25.3026    7.7204 H   0  0  0  0  0  0  0  0  0  0  0  0
    5.7265   25.5858    8.8841 H   0  0  0  0  0  0  0  0  0  0  0  0
    3.8178   20.4992    8.3794 H   0  0  0  0  0  0  0  0  0  0  0  0
    1.8904   20.8309   10.2760 H   0  0  0  0  0  0  0  0  0  0  0  0
    1.8189   25.5893    9.7816 H   0  0  0  0  0  0  0  0  0  0  0  0
    0.4551   27.0058   11.3154 H   0  0  0  0  0  0  0  0  0  0  0  0
   -0.0940   23.6343   13.9544 H   0  0  0  0  0  0  0  0  0  0  0  0
    1.2639   22.2100   12.4221 H   0  0  0  0  0  0  0  0  0  0  0  0
    4.5874   24.1249    5.1884 H   0  0  0  0  0  0  0  0  0  0  0  0
    3.3864   24.9505    6.1854 H   0  0  0  0  0  0  0  0  0  0  0  0
    6.9393   26.9242    4.7080 H   0  0  0  0  0  0  0  0  0  0  0  0
    6.9591   25.1690    5.2212 H   0  0  0  0  0  0  0  0  0  0  0  0
    7.0005   25.5143    2.7381 H   0  0  0  0  0  0  0  0  0  0  0  0
    5.6265   24.5289    3.3407 H   0  0  0  0  0  0  0  0  0  0  0  0
    5.5600   27.4180    2.6130 H   0  0  0  0  0  0  0  0  0  0  0  0
    4.9080   26.1930    1.7460 H   0  0  0  0  0  0  0  0  0  0  0  0
    3.1911   27.3741    2.9460 H   0  0  0  0  0  0  0  0  0  0  0  0
    3.3145   25.6706    3.4934 H   0  0  0  0  0  0  0  0  0  0  0  0
    4.5715   28.1248    4.8120 H   0  0  0  0  0  0  0  0  0  0  0  0
    3.1819   27.1123    5.4234 H   0  0  0  0  0  0  0  0  0  0  0  0
    1.4933   32.8979    7.1333 H   0  0  0  0  0  0  0  0  0  0  0  0
   -0.5700   33.3930    8.6310 H   0  0  0  0  0  0  0  0  0  0  0  0
  1  2  1  0
  2  3  2  0
  3  4  1  0
  4  5  2  0
  5  6  1  0
  6  7  1  0
  7  8  1  0
  8  9  1  0
  9 10  1  0
 10 11  1  0
 11 12  2  0
 11 13  1  0
 13 14  1  0
 14 15  1  0
 15 16  1  0
 16 17  2  0
 16 18  1  0
 18 19  2  0
 19 20  1  0
 20 21  2  0
 21 22  1  0
 22 23  2  0
 23 24  1  0
 24 25  2  0
 25 26  1  0
 25 27  1  0
 27 28  2  0
 21 29  1  0
 15 30  1  0
 30 31  1  0
 31 32  1  0
 32 33  1  0
 33 34  1  0
 34 35  1  0
 35 36  1  0
  7 37  2  0
 37 38  1  0
 38 39  1  0
 39  2  1  0
 39  6  2  0
 31 13  1  0
 29 18  1  0
 36 31  1  0
 28 22  1  0
  1 40  1  0
  1 41  1  0
  1 42  1  0
  3 43  1  0
  4 44  1  0
  5 45  1  0
  8 46  1  0
  8 47  1  0
  9 48  1  0
  9 49  1  0
 10 50  1  0
 13 51  1  6
 14 52  1  0
 14 53  1  0
 19 54  1  0
 20 55  1  0
 23 56  1  0
 24 57  1  0
 27 58  1  0
 28 59  1  0
 30 60  1  0
 30 61  1  0
 32 62  1  0
 32 63  1  0
 33 64  1  0
 33 65  1  0
 34 66  1  0
 34 67  1  0
 35 68  1  0
 35 69  1  0
 36 70  1  0
 36 71  1  0
 37 72  1  0
 38 73  1  0
M  CHG  1  34   1
M  END
>  <vina_affinity>  (1) 
-9.892

$$$$
dec_C24968168
     RDKit          3D

 52 54  0  0  0  0  0  0  0  0999 V2000
   -4.2820   19.9600   16.8330 C   0  0  0  0  0  0  0  0  0  0  0  0
   -3.2330   20.4090   15.9760 O   0  0  0  0  0  0  0  0  0  0  0  0
   -2.5090   21.4520   16.4770 C   0  0  0  0  0  0  0  0  0  0  0  0
   -1.9920   21.4430   17.5890 O   0  0  0  0  0  0  0  0  0  0  0  0
   -2.4310   22.5920   15.5520 C   0  0  0  0  0  0  0  0  0  0  0  0
   -3.4480   23.5230   15.3780 C   0  0  0  0  0  0  0  0  0  0  0  0
   -4.7860   23.6370   16.0200 C   0  0  0  0  0  0  0  0  0  0  0  0
   -3.0360   24.4320   14.4450 N   0  0  0  0  0  0  0  0  0  0  0  0
   -1.8320   24.0530   13.8940 C   0  0  0  0  0  0  0  0  0  0  0  0
   -1.3180   24.7670   12.7320 C   0  0  0  0  0  0  0  0  0  0  0  0
   -1.1460   24.1670   11.6680 O   0  0  0  0  0  0  0  0  0  0  0  0
   -0.8460   26.2170   12.8940 C   0  0  2  0  0  0  0  0  0  0  0  0
   -0.7480   26.5810   14.3710 C   0  0  0  0  0  0  0  0  0  0  0  0
   -2.0570   27.3330   12.0690 S   0  0  0  0  0  0  0  0  0  0  0  0
   -0.9290   28.1600   11.0050 C   0  0  0  0  0  0  0  0  0  0  0  0
    0.2670   27.6660   10.9450 N   0  0  0  0  0  0  0  0  0  0  0  0
    1.0870   28.2730   10.0580 C   0  0  0  0  0  0  0  0  0  0  0  0
    2.6900   27.7540    9.8360 S   0  0  0  0  0  0  0  0  0  0  0  0
    2.9670   28.9000    8.5940 C   0  0  0  0  0  0  0  0  0  0  0  0
    4.2970   28.9420    7.9170 C   0  0  0  0  0  0  0  0  0  0  0  0
    1.8520   29.6940    8.3570 C   0  0  0  0  0  0  0  0  0  0  0  0
    1.7710   30.7880    7.3410 C   0  0  0  0  0  0  0  0  0  0  0  0
    0.7650   29.3160    9.2240 C   0  0  0  0  0  0  0  0  0  0  0  0
   -0.5810   29.8580    9.3120 C   0  0  0  0  0  0  0  0  0  0  0  0
   -0.9610   30.7670    8.5790 O   0  0  0  0  0  0  0  0  0  0  0  0
   -1.3940   29.2510   10.2760 N   0  0  0  0  0  0  0  0  0  0  0  0
   -2.7430   29.7800   10.4310 C   0  0  0  0  0  0  0  0  0  0  0  0
   -1.3590   22.9910   14.6610 C   0  0  0  0  0  0  0  0  0  0  0  0
   -0.0110   22.3530   14.5850 C   0  0  0  0  0  0  0  0  0  0  0  0
   -3.9790   20.0897   17.8824 H   0  0  0  0  0  0  0  0  0  0  0  0
   -5.1912   20.5478   16.6386 H   0  0  0  0  0  0  0  0  0  0  0  0
   -4.4844   18.8964   16.6386 H   0  0  0  0  0  0  0  0  0  0  0  0
   -4.6699   23.6271   17.1138 H   0  0  0  0  0  0  0  0  0  0  0  0
   -5.2622   24.5790   15.7103 H   0  0  0  0  0  0  0  0  0  0  0  0
   -5.4147   22.7892   15.7103 H   0  0  0  0  0  0  0  0  0  0  0  0
   -3.5710   25.2300   14.1230 H   0  0  0  0  0  0  0  0  0  0  0  0
    0.1478   26.3283   12.4358 H   0  0  0  0  0  0  0  0  0  0  0  0
   -0.9857   25.6982   14.9827 H   0  0  0  0  0  0  0  0  0  0  0  0
    0.2735   26.9202   14.5980 H   0  0  0  0  0  0  0  0  0  0  0  0
   -1.4611   27.3872   14.5980 H   0  0  0  0  0  0  0  0  0  0  0  0
    5.0937   28.9672    8.6751 H   0  0  0  0  0  0  0  0  0  0  0  0
    4.4170   28.0472    7.2886 H   0  0  0  0  0  0  0  0  0  0  0  0
    4.3603   29.8426    7.2886 H   0  0  0  0  0  0  0  0  0  0  0  0
    1.6991   31.7591    7.8527 H   0  0  0  0  0  0  0  0  0  0  0  0
    2.6728   30.7712    6.7114 H   0  0  0  0  0  0  0  0  0  0  0  0
    0.8815   30.6386    6.7114 H   0  0  0  0  0  0  0  0  0  0  0  0
   -2.9797   29.8728   11.5012 H   0  0  0  0  0  0  0  0  0  0  0  0
   -2.8059   30.7694    9.9544 H   0  0  0  0  0  0  0  0  0  0  0  0
   -3.4617   29.0971    9.9544 H   0  0  0  0  0  0  0  0  0  0  0  0
    0.3677   22.1738   15.6021 H   0  0  0  0  0  0  0  0  0  0  0  0
   -0.0881   21.3958   14.0485 H   0  0  0  0  0  0  0  0  0  0  0  0
    0.6804   23.0194   14.0485 H   0  0  0  0  0  0  0  0  0  0  0  0
  1  2  1  0
  2  3  1  0
  3  4  2  0
  3  5  1  0
  5  6  2  0
  6  7  1  0
  6  8  1  0
  8  9  1  0
  9 10  1  0
 10 11  2  0
 10 12  1  0
 12 13  1  0
 12 14  1  0
 14 15  1  0
 15 16  2  0
 16 17  1  0
 17 18  1  0
 18 19  1  0
 19 20  1  0
 19 21  2  0
 21 22  1  0
 21 23  1  0
 23 24  1  0
 24 25  2  0
 24 26  1  0
 26 27  1  0
  9 28  2  0
 28 29  1  0
 28  5  1  0
 26 15  1  0
 23 17  2  0
  1 30  1  0
  1 31  1  0
  1 32  1  0
  7 33  1  0
  7 34  1  0
  7 35  1  0
  8 36  1  0
 12 37  1  6
 13 38  1  0
 13 39  1  0
 13 40  1  0
 20 41  1  0
 20 42  1  0
 20 43  1  0
 22 44  1  0
 22 45  1  0
 22 46  1  0
 27 47  1  0
 27 48  1  0
 27 49  1  0
 29 50  1  0
 29 51  1  0
 29 52  1  0
M  END
>  <vina_affinity>  (1) 
-8.614

$$$$
dec_C46394626
     RDKit          3D

 57 58  0  0  0  0  0  0  0  0999 V2000
   -0.8920   32.6930    8.9610 C   0  0  0  0  0  0  0  0  0  0  0  0
   -1.6460   31.7680    9.9140 C   0  0  1  0  0  0  0  0  0  0  0  0
   -2.7210   30.9750    9.1620 C   0  0  0  0  0  0  0  0  0  0  0  0
   -3.4380   29.9950   10.0860 C   0  0  0  0  0  0  0  0  0  0  0  0
   -2.4590   29.0710   10.8020 C   0  0  0  0  0  0  0  0  0  0  0  0
   -1.4410   29.9080   11.5410 N   0  0  1  0  0  0  0  0  0  0  0  0
   -0.6040   29.1420   12.5430 C   0  0  0  0  0  0  0  0  0  0  0  0
   -0.9440   27.6600   12.7280 C   0  0  0  0  0  0  0  0  0  0  0  0
   -0.0260   26.6500   12.0430 C   0  0  0  0  0  0  0  0  0  0  0  0
    1.1010   27.3000   11.4070 N   0  0  0  0  0  0  0  0  0  0  0  0
    1.6880   26.7780   10.2800 C   0  0  0  0  0  0  0  0  0  0  0  0
    1.2900   25.7670    9.7120 O   0  0  0  0  0  0  0  0  0  0  0  0
    2.8310   27.4720    9.9280 N   0  0  0  0  0  0  0  0  0  0  0  0
    3.7300   26.7860    9.0710 N   0  0  0  0  0  0  0  0  0  0  0  0
    4.7400   27.5440    8.4880 C   0  0  0  0  0  0  0  0  0  0  0  0
    4.7610   28.7750    8.5160 O   0  0  0  0  0  0  0  0  0  0  0  0
    5.8070   26.6930    7.8360 C   0  0  0  0  0  0  0  0  0  0  0  0
    5.4170   25.2210    7.8680 C   0  0  0  0  0  0  0  0  0  0  0  0
    6.1550   24.2980    6.4750 S   0  0  0  0  0  0  0  0  0  0  0  0
    5.5470   25.2390    5.0880 C   0  0  0  0  0  0  0  0  0  0  0  0
    4.1750   25.3970    4.8550 C   0  0  0  0  0  0  0  0  0  0  0  0
    3.7290   26.1410    3.7600 C   0  0  0  0  0  0  0  0  0  0  0  0
    4.6550   26.7330    2.9100 C   0  0  0  0  0  0  0  0  0  0  0  0
    4.2270   27.4440    1.8610 F   0  0  0  0  0  0  0  0  0  0  0  0
    6.0200   26.6010    3.1380 C   0  0  0  0  0  0  0  0  0  0  0  0
    6.4670   25.8570    4.2310 C   0  0  0  0  0  0  0  0  0  0  0  0
   -0.6720   30.8260   10.6260 C   0  0  0  0  0  0  0  0  0  0  0  0
   -0.3021   33.4167    9.5426 H   0  0  0  0  0  0  0  0  0  0  0  0
   -0.2193   32.0968    8.3270 H   0  0  0  0  0  0  0  0  0  0  0  0
   -1.6116   33.2317    8.3270 H   0  0  0  0  0  0  0  0  0  0  0  0
   -2.1478   32.3848   10.6741 H   0  0  0  0  0  0  0  0  0  0  0  0
   -3.4574   31.6774    8.7444 H   0  0  0  0  0  0  0  0  0  0  0  0
   -2.2314   30.4011    8.3614 H   0  0  0  0  0  0  0  0  0  0  0  0
   -4.0048   30.5641   10.8375 H   0  0  0  0  0  0  0  0  0  0  0  0
   -4.1072   29.3741    9.4723 H   0  0  0  0  0  0  0  0  0  0  0  0
   -3.0052   28.4385   11.5173 H   0  0  0  0  0  0  0  0  0  0  0  0
   -1.9494   28.4298   10.0678 H   0  0  0  0  0  0  0  0  0  0  0  0
   -2.0120   30.5200   12.1390 H   0  0  0  0  0  0  0  0  0  0  0  0
    0.4455   29.2061   12.2199 H   0  0  0  0  0  0  0  0  0  0  0  0
   -0.8127   29.6117   13.5155 H   0  0  0  0  0  0  0  0  0  0  0  0
   -0.9260   27.4471   13.8070 H   0  0  0  0  0  0  0  0  0  0  0  0
   -1.9246   27.5285   12.2472 H   0  0  0  0  0  0  0  0  0  0  0  0
    0.3490   25.9407   12.7955 H   0  0  0  0  0  0  0  0  0  0  0  0
   -0.6058   26.1291   11.2668 H   0  0  0  0  0  0  0  0  0  0  0  0
    1.2010   28.3010   11.5310 H   0  0  0  0  0  0  0  0  0  0  0  0
    3.3070   27.9270   10.7030 H   0  0  0  0  0  0  0  0  0  0  0  0
    3.9340   25.8260    9.3460 H   0  0  0  0  0  0  0  0  0  0  0  0
    5.9328   27.0104    6.7903 H   0  0  0  0  0  0  0  0  0  0  0  0
    6.7486   26.8211    8.3901 H   0  0  0  0  0  0  0  0  0  0  0  0
    5.7663   24.7799    8.8132 H   0  0  0  0  0  0  0  0  0  0  0  0
    4.3223   25.1537    7.7832 H   0  0  0  0  0  0  0  0  0  0  0  0
    3.4463   24.9337    5.5364 H   0  0  0  0  0  0  0  0  0  0  0  0
    2.6515   26.2574    3.5719 H   0  0  0  0  0  0  0  0  0  0  0  0
    6.7431   27.0798    2.4614 H   0  0  0  0  0  0  0  0  0  0  0  0
    7.5458   25.7555    4.4203 H   0  0  0  0  0  0  0  0  0  0  0  0
    0.0443   31.4165   11.2161 H   0  0  0  0  0  0  0  0  0  0  0  0
   -0.1272   30.2288    9.8800 H   0  0  0  0  0  0  0  0  0  0  0  0
  1  2  1  0
  2  3  1  0
  3  4  1  0
  4  5  1  0
  5  6  1  0
  6  7  1  0
  7  8  1  0
  8  9  1  0
  9 10  1  0
 10 11  1  0
 11 12  2  0
 11 13  1  0
 13 14  1  0
 14 15  1  0
 15 16  2  0
 15 17  1  0
 17 18  1  0
 18 19  1  0
 19 20  1  0
 20 21  2  0
 21 22  1  0
 22 23  2  0
 23 24  1  0
 23 25  1  0
 25 26  2  0
  6 27  1  0
 27  2  1  0
 26 20  1  0
  1 28  1  0
  1 29  1  0
  1 30  1  0
  2 31  1  1
  3 32  1  0
  3 33  1  0
  4 34  1  0
  4 35  1  0
  5 36  1  0
  5 37  1  0
  6 38  1  1
  7 39  1  0
  7 40  1  0
  8 41  1  0
  8 42  1  0
  9 43  1  0
  9 44  1  0
 10 45  1  0
 13 46  1  0
 14 47  1  0
 17 48  1  0
 17 49  1  0
 18 50  1  0
 18 51  1  0
 21 52  1  0
 22 53  1  0
 25 54  1  0
 26 55  1  0
 27 56  1  0
 27 57  1  0
M  CHG  1   6   1
M  END
>  <vina_affinity>  (1) 
-7.844

$$$$
dec_C12229165
     RDKit          3D

 58 60  0  0  0  0  0  0  0  0999 V2000
    6.4760   26.0600    6.5660 C   0  0  0  0  0  0  0  0  0  0  0  0
    5.3570   27.0110    6.8890 C   0  0  0  0  0  0  0  0  0  0  0  0
    5.1830   27.4440    8.2100 C   0  0  0  0  0  0  0  0  0  0  0  0
    4.1520   28.3250    8.5430 C   0  0  0  0  0  0  0  0  0  0  0  0
    3.2580   28.7820    7.5640 C   0  0  0  0  0  0  0  0  0  0  0  0
    2.2290   29.6940    7.9430 N   0  0  0  0  0  0  0  0  0  0  0  0
    2.0000   30.7800    7.1380 N   0  0  0  0  0  0  0  0  0  0  0  0
    0.8580   31.3040    7.5800 C   0  0  0  0  0  0  0  0  0  0  0  0
    0.3830   30.6520    8.7180 C   0  0  0  0  0  0  0  0  0  0  0  0
   -0.7580   30.8330    9.5850 C   0  0  0  0  0  0  0  0  0  0  0  0
   -1.8560   31.8590    9.3220 C   0  0  0  0  0  0  0  0  0  0  0  0
   -1.8990   32.9400   10.3970 C   0  0  0  0  0  0  0  0  0  0  0  0
   -3.2110   31.1930    9.1150 C   0  0  0  0  0  0  0  0  0  0  0  0
   -0.8720   30.0850   10.6470 N   0  0  0  0  0  0  0  0  0  0  0  0
    0.1190   29.1560   10.9630 N   0  0  0  0  0  0  0  0  0  0  0  0
   -0.0040   28.4910   12.2510 C   0  0  0  0  0  0  0  0  0  0  0  0
   -0.4470   27.0330   12.0770 C   0  0  0  0  0  0  0  0  0  0  0  0
   -1.6030   26.7010   11.8360 O   0  0  0  0  0  0  0  0  0  0  0  0
    0.6060   26.1320   12.1670 N   0  0  0  0  0  0  0  0  0  0  0  0
    0.4520   24.6690   12.1110 C   0  0  0  0  0  0  0  0  0  0  0  0
   -0.3870   24.2410   10.8950 C   0  0  0  0  0  0  0  0  0  0  0  0
   -0.1810   24.1370   13.4070 C   0  0  0  0  0  0  0  0  0  0  0  0
    1.8550   24.0520   11.9620 C   0  0  0  0  0  0  0  0  0  0  0  0
    1.2740   28.9070   10.1960 C   0  0  0  0  0  0  0  0  0  0  0  0
    2.1390   28.1200   10.5720 O   0  0  0  0  0  0  0  0  0  0  0  0
    1.3210   29.6750    8.9850 C   0  0  0  0  0  0  0  0  0  0  0  0
    3.4490   28.3770    6.2390 C   0  0  0  0  0  0  0  0  0  0  0  0
    4.4840   27.4860    5.8920 C   0  0  0  0  0  0  0  0  0  0  0  0
    4.6410   27.0730    4.4530 C   0  0  0  0  0  0  0  0  0  0  0  0
    6.9186   25.6838    7.5001 H   0  0  0  0  0  0  0  0  0  0  0  0
    6.0824   25.2159    5.9808 H   0  0  0  0  0  0  0  0  0  0  0  0
    7.2456   26.5846    5.9808 H   0  0  0  0  0  0  0  0  0  0  0  0
    5.8665   27.0858    8.9940 H   0  0  0  0  0  0  0  0  0  0  0  0
    4.0400   28.6638    9.5835 H   0  0  0  0  0  0  0  0  0  0  0  0
    0.3479   32.1535    7.1024 H   0  0  0  0  0  0  0  0  0  0  0  0
   -1.6049   32.3682    8.3799 H   0  0  0  0  0  0  0  0  0  0  0  0
   -1.8803   32.4695   11.3911 H   0  0  0  0  0  0  0  0  0  0  0  0
   -1.0264   33.6008   10.2876 H   0  0  0  0  0  0  0  0  0  0  0  0
   -2.8213   33.5294   10.2876 H   0  0  0  0  0  0  0  0  0  0  0  0
   -3.6634   30.9706   10.0927 H   0  0  0  0  0  0  0  0  0  0  0  0
   -3.8700   31.8699    8.5515 H   0  0  0  0  0  0  0  0  0  0  0  0
   -3.0776   30.2578    8.5515 H   0  0  0  0  0  0  0  0  0  0  0  0
    0.9702   28.5124   12.7613 H   0  0  0  0  0  0  0  0  0  0  0  0
   -0.7630   29.0191   12.8469 H   0  0  0  0  0  0  0  0  0  0  0  0
    1.4600   26.4770   12.5870 H   0  0  0  0  0  0  0  0  0  0  0  0
   -1.3174   23.7664   11.2402 H   0  0  0  0  0  0  0  0  0  0  0  0
   -0.6300   25.1253   10.2876 H   0  0  0  0  0  0  0  0  0  0  0  0
    0.1863   23.5252   10.2876 H   0  0  0  0  0  0  0  0  0  0  0  0
    0.3373   24.5726   14.2739 H   0  0  0  0  0  0  0  0  0  0  0  0
   -1.2445   24.4164   13.4372 H   0  0  0  0  0  0  0  0  0  0  0  0
   -0.0888   23.0413   13.4372 H   0  0  0  0  0  0  0  0  0  0  0  0
    2.2809   23.8647   12.9587 H   0  0  0  0  0  0  0  0  0  0  0  0
    1.7816   23.1031   11.4104 H   0  0  0  0  0  0  0  0  0  0  0  0
    2.5047   24.7474   11.4104 H   0  0  0  0  0  0  0  0  0  0  0  0
    2.7800   28.7605    5.4546 H   0  0  0  0  0  0  0  0  0  0  0  0
    5.0315   26.0457    4.4069 H   0  0  0  0  0  0  0  0  0  0  0  0
    3.6636   27.1166    3.9503 H   0  0  0  0  0  0  0  0  0  0  0  0
    5.3426   27.7549    3.9503 H   0  0  0  0  0  0  0  0  0  0  0  0
  1  2  1  0
  2  3  2  0
  3  4  1  0
  4  5  2  0
  5  6  1  0
  6  7  1  0
  7  8  2  0
  8  9  1  0
  9 10  1  0
 10 11  1  0
 11 12  1  0
 11 13  1  0
 10 14  2  0
 14 15  1  0
 15 16  1  0
 16 17  1  0
 17 18  2  0
 17 19  1  0
 19 20  1  0
 20 21  1  0
 20 22  1  0
 20 23  1  0
 15 24  1  0
 24 25  2  0
 24 26  1  0
  5 27  1  0
 27 28  2  0
 28 29  1  0
 28  2  1  0
 26  6  1  0
 26  9  2  0
  1 30  1  0
  1 31  1  0
  1 32  1  0
  3 33  1  0
  4 34  1  0
  8 35  1  0
 11 36  1  0
 12 37  1  0
 12 38  1  0
 12 39  1  0
 13 40  1  0
 13 41  1  0
 13 42  1  0
 16 43  1  0
 16 44  1  0
 19 45  1  0
 21 46  1  0
 21 47  1  0
 21 48  1  0
 22 49  1  0
 22 50  1  0
 22 51  1  0
 23 52  1  0
 23 53  1  0
 23 54  1  0
 27 55  1  0
 29 56  1  0
 29 57  1  0
 29 58  1  0
M  END
>  <vina_affinity>  (1) 
-9.251

$$$$
dec_C07947216
     RDKit          3D

 44 46  0  0  0  0  0  0  0  0999 V2000
   -2.6620   31.2550    8.9610 C   0  0  0  0  0  0  0  0  0  0  0  0
   -1.3170   31.3480    9.6380 C   0  0  0  0  0  0  0  0  0  0  0  0
   -1.2120   31.9210   10.7280 O   0  0  0  0  0  0  0  0  0  0  0  0
   -0.2170   30.7620    9.0030 N   0  0  0  0  0  0  0  0  0  0  0  0
    0.3550   31.2440    7.8360 C   0  0  0  0  0  0  0  0  0  0  0  0
    1.4790   30.7480    7.3080 C   0  0  0  0  0  0  0  0  0  0  0  0
    2.2240   29.6930    7.9850 C   0  0  0  0  0  0  0  0  0  0  0  0
    3.4830   29.2970    7.5200 C   0  0  0  0  0  0  0  0  0  0  0  0
    4.2020   28.3090    8.1950 C   0  0  0  0  0  0  0  0  0  0  0  0
    3.6670   27.7180    9.3360 C   0  0  0  0  0  0  0  0  0  0  0  0
    2.4100   28.1060    9.8000 C   0  0  0  0  0  0  0  0  0  0  0  0
    1.6740   29.0920    9.1250 C   0  0  0  0  0  0  0  0  0  0  0  0
    0.2820   29.4910    9.5950 C   0  0  2  0  0  0  0  0  0  0  0  0
   -0.7250   28.3510    9.3350 C   0  0  0  0  0  0  0  0  0  0  0  0
   -1.2750   27.8080   10.6380 C   0  0  0  0  0  0  0  0  0  0  0  0
   -2.3980   28.1310   11.0120 O   0  0  0  0  0  0  0  0  0  0  0  0
   -0.3960   26.9550   11.2900 N   0  0  0  0  0  0  0  0  0  0  0  0
   -0.5880   26.2840   12.5270 C   0  0  0  0  0  0  0  0  0  0  0  0
   -0.7700   26.9880   13.7260 C   0  0  0  0  0  0  0  0  0  0  0  0
   -0.9820   26.3230   14.9340 C   0  0  0  0  0  0  0  0  0  0  0  0
   -1.0200   24.9370   14.9620 C   0  0  0  0  0  0  0  0  0  0  0  0
   -0.8350   24.2100   13.7840 C   0  0  0  0  0  0  0  0  0  0  0  0
   -0.9180   22.4870   13.9260 Cl  0  0  0  0  0  0  0  0  0  0  0  0
   -0.6010   24.8630   12.5530 C   0  0  0  0  0  0  0  0  0  0  0  0
   -0.3950   24.0700   11.2860 C   0  0  0  0  0  0  0  0  0  0  0  0
   -3.4532   31.2003    9.7233 H   0  0  0  0  0  0  0  0  0  0  0  0
   -2.8187   32.1445    8.3331 H   0  0  0  0  0  0  0  0  0  0  0  0
   -2.6948   30.3524    8.3331 H   0  0  0  0  0  0  0  0  0  0  0  0
   -0.1413   32.0775    7.3175 H   0  0  0  0  0  0  0  0  0  0  0  0
    1.8470   31.1416    6.3490 H   0  0  0  0  0  0  0  0  0  0  0  0
    3.9074   29.7657    6.6199 H   0  0  0  0  0  0  0  0  0  0  0  0
    5.1903   27.9979    7.8256 H   0  0  0  0  0  0  0  0  0  0  0  0
    4.2359   26.9443    9.8723 H   0  0  0  0  0  0  0  0  0  0  0  0
    1.9923   27.6353   10.7022 H   0  0  0  0  0  0  0  0  0  0  0  0
    0.3729   29.6724   10.6761 H   0  0  0  0  0  0  0  0  0  0  0  0
   -1.5561   28.7365    8.7261 H   0  0  0  0  0  0  0  0  0  0  0  0
   -0.2064   27.5377    8.8063 H   0  0  0  0  0  0  0  0  0  0  0  0
    0.4840   26.7730   10.8030 H   0  0  0  0  0  0  0  0  0  0  0  0
   -0.7451   28.0877   13.7139 H   0  0  0  0  0  0  0  0  0  0  0  0
   -1.1187   26.8969   15.8624 H   0  0  0  0  0  0  0  0  0  0  0  0
   -1.1958   24.4105   15.9117 H   0  0  0  0  0  0  0  0  0  0  0  0
   -0.1260   23.0344   11.5413 H   0  0  0  0  0  0  0  0  0  0  0  0
   -1.3237   24.0729   10.6965 H   0  0  0  0  0  0  0  0  0  0  0  0
    0.4149   24.5246   10.6965 H   0  0  0  0  0  0  0  0  0  0  0  0
  1  2  1  0
  2  3  2  0
  2  4  1  0
  4  5  1  0
  5  6  2  0
  6  7  1  0
  7  8  2  0
  8  9  1  0
  9 10  2  0
 10 11  1  0
 11 12  2  0
 12 13  1  0
 13 14  1  0
 14 15  1  0
 15 16  2  0
 15 17  1  0
 17 18  1  0
 18 19  2  0
 19 20  1  0
 20 21  2  0
 21 22  1  0
 22 23  1  0
 22 24  2  0
 24 25  1  0
 13  4  1  0
 24 18  1  0
 12  7  1  0
  1 26  1  0
  1 27  1  0
  1 28  1  0
  5 29  1  0
  6 30  1  0
  8 31  1  0
  9 32  1  0
 10 33  1  0
 11 34  1  0
 13 35  1  1
 14 36  1  0
 14 37  1  0
 17 38  1  0
 19 39  1  0
 20 40  1  0
 21 41  1  0
 25 42  1  0
 25 43  1  0
 25 44  1  0
M  END
>  <vina_affinity>  (1) 
-8.638

$$$$
dec_C63493866
     RDKit          3D

 65 68  0  0  0  0  0  0  0  0999 V2000
    1.8590   30.4790    7.3650 C   0  0  0  0  0  0  0  0  0  0  0  0
    0.7090   31.1940    7.8050 O   0  0  0  0  0  0  0  0  0  0  0  0
   -0.1640   30.5430    8.6400 C   0  0  0  0  0  0  0  0  0  0  0  0
   -1.1830   31.4410    9.1800 C   0  0  0  0  0  0  0  0  0  0  0  0
   -2.1570   31.0590   10.0260 C   0  0  0  0  0  0  0  0  0  0  0  0
   -2.1820   29.6450   10.4200 C   0  0  0  0  0  0  0  0  0  0  0  0
   -1.1540   28.7410    9.8630 C   0  0  0  0  0  0  0  0  0  0  0  0
   -0.1510   29.2360    8.9740 C   0  0  0  0  0  0  0  0  0  0  0  0
   -1.4350   27.5500   10.4090 C   0  0  0  0  0  0  0  0  0  0  0  0
   -0.7320   26.2340   10.2680 C   0  0  0  0  0  0  0  0  0  0  0  0
   -1.1160   25.2180   11.3620 C   0  0  0  0  0  0  0  0  0  0  0  0
   -0.1920   25.2860   12.5170 N   0  0  0  0  0  0  0  0  0  0  0  0
   -0.3150   24.3290   13.4420 C   0  0  0  0  0  0  0  0  0  0  0  0
   -0.8390   24.5780   14.6010 N   0  0  0  0  0  0  0  0  0  0  0  0
   -1.2050   25.8530   14.9590 C   0  0  0  0  0  0  0  0  0  0  0  0
   -0.3960   26.6940   15.3600 O   0  0  0  0  0  0  0  0  0  0  0  0
   -2.6780   26.1500   14.6810 C   0  0  0  0  0  0  0  0  0  0  0  0
   -3.7730   25.7220   16.0830 S   0  0  0  0  0  0  0  0  0  0  0  0
   -4.4020   24.1050   15.5950 C   0  0  1  0  0  0  0  0  0  0  0  0
   -3.3330   23.1360   15.3310 N   0  0  0  0  0  0  0  0  0  0  0  0
   -3.9490   21.8020   15.3390 N   0  0  0  0  0  0  0  0  0  0  0  0
   -4.8630   21.7150   16.4860 C   0  0  1  0  0  0  0  0  0  0  0  0
   -4.1490   21.2150   17.7380 C   0  0  0  0  0  0  0  0  0  0  0  0
   -5.5640   23.3630   16.7430 S   0  0  0  0  0  0  0  0  0  0  0  0
    0.1950   23.1290   13.0590 N   0  0  0  0  0  0  0  0  0  0  0  0
    0.3200   21.9370   13.7610 C   0  0  0  0  0  0  0  0  0  0  0  0
    1.5770   21.4510   13.8320 N   0  0  0  0  0  0  0  0  0  0  0  0
    1.7760   20.2970   14.4990 C   0  0  0  0  0  0  0  0  0  0  0  0
    3.1790   19.7780   14.5720 C   0  0  0  0  0  0  0  0  0  0  0  0
    0.7460   19.6050   15.1000 C   0  0  0  0  0  0  0  0  0  0  0  0
   -0.5090   20.1580   14.9800 C   0  0  0  0  0  0  0  0  0  0  0  0
   -1.6990   19.4880   15.5960 C   0  0  0  0  0  0  0  0  0  0  0  0
   -0.7270   21.3080   14.3160 N   0  0  0  0  0  0  0  0  0  0  0  0
   -2.6480   27.6320   11.2930 C   0  0  0  0  0  0  0  0  0  0  0  0
   -2.9900   29.0520   11.2060 N   0  0  0  0  0  0  0  0  0  0  0  0
    2.4273   30.1257    8.2380 H   0  0  0  0  0  0  0  0  0  0  0  0
    1.5448   29.6167    6.7585 H   0  0  0  0  0  0  0  0  0  0  0  0
    2.4933   31.1422    6.7585 H   0  0  0  0  0  0  0  0  0  0  0  0
   -1.1516   32.4974    8.8750 H   0  0  0  0  0  0  0  0  0  0  0  0
   -2.9015   31.7744   10.4056 H   0  0  0  0  0  0  0  0  0  0  0  0
    0.6188   28.5628    8.5688 H   0  0  0  0  0  0  0  0  0  0  0  0
   -0.9872   25.8050    9.2878 H   0  0  0  0  0  0  0  0  0  0  0  0
    0.3462   26.4280   10.3671 H   0  0  0  0  0  0  0  0  0  0  0  0
   -2.1372   25.4352   11.7084 H   0  0  0  0  0  0  0  0  0  0  0  0
   -1.0542   24.2080   10.9307 H   0  0  0  0  0  0  0  0  0  0  0  0
   -2.7846   27.2240   14.4686 H   0  0  0  0  0  0  0  0  0  0  0  0
   -2.9822   25.5290   13.8255 H   0  0  0  0  0  0  0  0  0  0  0  0
   -4.9482   24.3299   14.6671 H   0  0  0  0  0  0  0  0  0  0  0  0
   -2.6530   23.2300   16.0860 H   0  0  0  0  0  0  0  0  0  0  0  0
   -3.2500   21.0560   15.3760 H   0  0  0  0  0  0  0  0  0  0  0  0
   -5.6604   20.9860   16.2794 H   0  0  0  0  0  0  0  0  0  0  0  0
   -4.6746   21.5830   18.6315 H   0  0  0  0  0  0  0  0  0  0  0  0
   -4.1440   20.1150   17.7426 H   0  0  0  0  0  0  0  0  0  0  0  0
   -3.1136   21.5864   17.7426 H   0  0  0  0  0  0  0  0  0  0  0  0
    0.7210   23.0980   12.2050 H   0  0  0  0  0  0  0  0  0  0  0  0
    3.4751   19.6685   15.6257 H   0  0  0  0  0  0  0  0  0  0  0  0
    3.2346   18.7998   14.0719 H   0  0  0  0  0  0  0  0  0  0  0  0
    3.8578   20.4845   14.0719 H   0  0  0  0  0  0  0  0  0  0  0  0
    0.9173   18.6646   15.6444 H   0  0  0  0  0  0  0  0  0  0  0  0
   -1.6187   19.5332   16.6921 H   0  0  0  0  0  0  0  0  0  0  0  0
   -2.6167   20.0020   15.2741 H   0  0  0  0  0  0  0  0  0  0  0  0
   -1.7354   18.4368   15.2741 H   0  0  0  0  0  0  0  0  0  0  0  0
   -3.4639   27.0000   10.9123 H   0  0  0  0  0  0  0  0  0  0  0  0
   -2.4738   27.2791   12.3202 H   0  0  0  0  0  0  0  0  0  0  0  0
   -3.7730   29.4790   11.6910 H   0  0  0  0  0  0  0  0  0  0  0  0
  1  2  1  0
  2  3  1  0
  3  4  1  0
  4  5  2  0
  5  6  1  0
  6  7  1  0
  7  8  1  0
  7  9  2  0
  9 10  1  0
 10 11  1  0
 11 12  1  0
 12 13  1  0
 13 14  2  0
 14 15  1  0
 15 16  2  0
 15 17  1  0
 17 18  1  0
 18 19  1  0
 19 20  1  0
 20 21  1  0
 21 22  1  0
 22 23  1  0
 22 24  1  0
 13 25  1  0
 25 26  1  0
 26 27  2  0
 27 28  1  0
 28 29  1  0
 28 30  2  0
 30 31  1  0
 31 32  1  0
 31 33  2  0
  9 34  1  0
 34 35  1  0
  8  3  2  0
 24 19  1  0
 33 26  1  0
 35  6  2  0
  1 36  1  0
  1 37  1  0
  1 38  1  0
  4 39  1  0
  5 40  1  0
  8 41  1  0
 10 42  1  0
 10 43  1  0
 11 44  1  0
 11 45  1  0
 17 46  1  0
 17 47  1  0
 19 48  1  6
 20 49  1  0
 21 50  1  0
 22 51  1  6
 23 52  1  0
 23 53  1  0
 23 54  1  0
 25 55  1  0
 29 56  1  0
 29 57  1  0
 29 58  1  0
 30 59  1  0
 32 60  1  0
 32 61  1  0
 32 62  1  0
 34 63  1  0
 34 64  1  0
 35 65  1  0
M  CHG  2  12  -1  35   1
M  END
>  <vina_affinity>  (1) 
-8.247

$$$$
dec_C39667197
     RDKit          3D

 68 71  0  0  0  0  0  0  0  0999 V2000
   -1.7130   31.5230    8.9610 C   0  0  0  0  0  0  0  0  0  0  0  0
   -0.5890   30.5920    9.3080 C   0  0  0  0  0  0  0  0  0  0  0  0
   -0.6220   29.8530   10.4910 C   0  0  0  0  0  0  0  0  0  0  0  0
    0.4100   28.9640   10.7940 C   0  0  0  0  0  0  0  0  0  0  0  0
    1.4920   28.7840    9.9150 C   0  0  0  0  0  0  0  0  0  0  0  0
    2.5820   27.8180   10.3150 C   0  0  0  0  0  0  0  0  0  0  0  0
    2.3820   26.4390    9.6810 C   0  0  0  0  0  0  0  0  0  0  0  0
    1.3180   25.6840   10.3310 N   0  0  0  0  0  0  0  0  0  0  0  0
    1.5990   24.8600   11.4020 C   0  0  0  0  0  0  0  0  0  0  0  0
    2.6970   24.8160   11.9450 O   0  0  0  0  0  0  0  0  0  0  0  0
    0.3940   24.1110   11.9340 C   0  0  1  0  0  0  0  0  0  0  0  0
    0.7490   23.2570   13.1500 C   0  0  0  0  0  0  0  0  0  0  0  0
   -0.5090   23.1250   13.8710 N   0  0  0  0  0  0  0  0  0  0  0  0
   -0.6450   22.1650   14.8700 C   0  0  0  0  0  0  0  0  0  0  0  0
    0.3580   21.6210   15.3360 O   0  0  0  0  0  0  0  0  0  0  0  0
   -1.9930   21.7970   15.3660 C   0  0  0  0  0  0  0  0  0  0  0  0
   -2.6180   20.5420   15.1220 C   0  0  0  0  0  0  0  0  0  0  0  0
   -3.8590   20.6060   15.7160 C   0  0  0  0  0  0  0  0  0  0  0  0
   -4.9520   19.6050   15.7840 C   0  0  0  0  0  0  0  0  0  0  0  0
   -3.9290   21.8550   16.2660 N   0  0  0  0  0  0  0  0  0  0  0  0
   -5.0520   22.4200   16.9790 C   0  0  0  0  0  0  0  0  0  0  0  0
   -2.8080   22.5900   16.0950 N   0  0  0  0  0  0  0  0  0  0  0  0
   -1.5220   24.0120   13.3410 C   0  0  0  0  0  0  0  0  0  0  0  0
   -0.7500   25.0300   12.4640 C   0  0  0  0  0  0  0  0  0  0  0  0
   -0.2340   26.2050   13.3360 C   0  0  0  0  0  0  0  0  0  0  0  0
   -1.3430   27.0530   13.9550 C   0  0  0  0  0  0  0  0  0  0  0  0
   -2.5570   27.0680   13.0820 N   0  0  0  0  0  0  0  0  0  0  0  0
   -2.2700   26.9460   11.6290 C   0  0  0  0  0  0  0  0  0  0  0  0
   -1.6400   25.5860   11.3280 C   0  0  0  0  0  0  0  0  0  0  0  0
    1.5320   29.5250    8.7170 C   0  0  0  0  0  0  0  0  0  0  0  0
    2.6520   29.3770    7.7230 C   0  0  0  0  0  0  0  0  0  0  0  0
    0.4810   30.4110    8.4240 C   0  0  0  0  0  0  0  0  0  0  0  0
   -2.1725   31.9036    9.8852 H   0  0  0  0  0  0  0  0  0  0  0  0
   -1.3224   32.3657    8.3717 H   0  0  0  0  0  0  0  0  0  0  0  0
   -2.4683   30.9824    8.3717 H   0  0  0  0  0  0  0  0  0  0  0  0
   -1.4650   29.9717   11.1876 H   0  0  0  0  0  0  0  0  0  0  0  0
    0.3763   28.3954   11.7350 H   0  0  0  0  0  0  0  0  0  0  0  0
    3.5522   28.2218    9.9899 H   0  0  0  0  0  0  0  0  0  0  0  0
    2.5487   27.6993   11.4081 H   0  0  0  0  0  0  0  0  0  0  0  0
    2.1255   26.5708    8.6195 H   0  0  0  0  0  0  0  0  0  0  0  0
    3.3182   25.8737    9.7990 H   0  0  0  0  0  0  0  0  0  0  0  0
    0.5260   25.4440    9.7470 H   0  0  0  0  0  0  0  0  0  0  0  0
    0.0664   23.5275   11.0609 H   0  0  0  0  0  0  0  0  0  0  0  0
    1.1258   22.2716   12.8385 H   0  0  0  0  0  0  0  0  0  0  0  0
    1.5426   23.7070   13.7646 H   0  0  0  0  0  0  0  0  0  0  0  0
   -2.1944   19.6905   14.5692 H   0  0  0  0  0  0  0  0  0  0  0  0
   -5.1871   19.3897   16.8368 H   0  0  0  0  0  0  0  0  0  0  0  0
   -5.8462   20.0039   15.2828 H   0  0  0  0  0  0  0  0  0  0  0  0
   -4.6330   18.6792   15.2828 H   0  0  0  0  0  0  0  0  0  0  0  0
   -4.8799   22.3334   18.0620 H   0  0  0  0  0  0  0  0  0  0  0  0
   -5.1618   23.4806   16.7088 H   0  0  0  0  0  0  0  0  0  0  0  0
   -5.9691   21.8760   16.7088 H   0  0  0  0  0  0  0  0  0  0  0  0
   -2.2469   23.4506   12.7333 H   0  0  0  0  0  0  0  0  0  0  0  0
   -2.0943   24.5071   14.1393 H   0  0  0  0  0  0  0  0  0  0  0  0
    0.3783   25.7890   14.1496 H   0  0  0  0  0  0  0  0  0  0  0  0
    0.3392   26.8673   12.6705 H   0  0  0  0  0  0  0  0  0  0  0  0
   -1.6108   26.6342   14.9363 H   0  0  0  0  0  0  0  0  0  0  0  0
   -0.9764   28.0845   14.0631 H   0  0  0  0  0  0  0  0  0  0  0  0
   -3.0680   27.9450   13.2550 H   0  0  0  0  0  0  0  0  0  0  0  0
   -3.2070   26.3250   13.3740 H   0  0  0  0  0  0  0  0  0  0  0  0
   -3.2084   27.0449   11.0637 H   0  0  0  0  0  0  0  0  0  0  0  0
   -1.5683   27.7400   11.3337 H   0  0  0  0  0  0  0  0  0  0  0  0
   -2.4497   24.8653   11.1410 H   0  0  0  0  0  0  0  0  0  0  0  0
   -0.9844   25.7292   10.4564 H   0  0  0  0  0  0  0  0  0  0  0  0
    3.6041   29.2512    8.2594 H   0  0  0  0  0  0  0  0  0  0  0  0
    2.4677   28.4954    7.0915 H   0  0  0  0  0  0  0  0  0  0  0  0
    2.7030   30.2762    7.0915 H   0  0  0  0  0  0  0  0  0  0  0  0
    0.4998   30.9744    7.4794 H   0  0  0  0  0  0  0  0  0  0  0  0
  1  2  1  0
  2  3  2  0
  3  4  1  0
  4  5  2  0
  5  6  1  0
  6  7  1  0
  7  8  1  0
  8  9  1  0
  9 10  2  0
  9 11  1  0
 11 12  1  0
 12 13  1  0
 13 14  1  0
 14 15  2  0
 14 16  1  0
 16 17  1  0
 17 18  2  0
 18 19  1  0
 18 20  1  0
 20 21  1  0
 20 22  1  0
 13 23  1  0
 23 24  1  0
 24 25  1  0
 25 26  1  0
 26 27  1  0
 27 28  1  0
 28 29  1  0
  5 30  1  0
 30 31  1  0
 30 32  2  0
 32  2  1  0
 24 11  1  0
 22 16  2  0
 29 24  1  0
  1 33  1  0
  1 34  1  0
  1 35  1  0
  3 36  1  0
  4 37  1  0
  6 38  1  0
  6 39  1  0
  7 40  1  0
  7 41  1  0
  8 42  1  0
 11 43  1  6
 12 44  1  0
 12 45  1  0
 17 46  1  0
 19 47  1  0
 19 48  1  0
 19 49  1  0
 21 50  1  0
 21 51  1  0
 21 52  1  0
 23 53  1  0
 23 54  1  0
 25 55  1  0
 25 56  1  0
 26 57  1  0
 26 58  1  0
 27 59  1  0
 27 60  1  0
 28 61  1  0
 28 62  1  0
 29 63  1  0
 29 64  1  0
 31 65  1  0
 31 66  1  0
 31 67  1  0
 32 68  1  0
M  CHG  1  27   1
M  END
>  <vina_affinity>  (1) 
-9.261

$$$$
dec_C22590291
     RDKit          3D

 55 57  0  0  0  0  0  0  0  0999 V2000
    4.6740   25.4520    3.9570 O   0  0  0  0  0  0  0  0  0  0  0  0
    5.1910   26.4310    4.4810 C   0  0  0  0  0  0  0  0  0  0  0  0
    6.1910   27.1770    3.8960 N   0  0  0  0  0  0  0  0  0  0  0  0
    6.5660   27.0480    2.4630 C   0  0  0  0  0  0  0  0  0  0  0  0
    7.5140   28.2350    2.1340 C   0  0  0  0  0  0  0  0  0  0  0  0
    8.6880   28.1820    2.9620 O   0  0  0  0  0  0  0  0  0  0  0  0
    5.2920   27.1490    1.5800 C   0  0  0  0  0  0  0  0  0  0  0  0
    5.5930   27.0730    0.1820 O   0  0  0  0  0  0  0  0  0  0  0  0
    7.3070   25.7200    2.1610 C   0  0  0  0  0  0  0  0  0  0  0  0
    6.4070   24.7080    1.7070 O   0  0  0  0  0  0  0  0  0  0  0  0
    4.7300   26.8900    5.8220 C   0  0  0  0  0  0  0  0  0  0  0  0
    4.8320   26.0020    6.9010 C   0  0  0  0  0  0  0  0  0  0  0  0
    4.4190   26.3950    8.1760 C   0  0  0  0  0  0  0  0  0  0  0  0
    3.8990   27.6740    8.3750 C   0  0  0  0  0  0  0  0  0  0  0  0
    3.5460   28.0110    9.6610 O   0  0  0  0  0  0  0  0  0  0  0  0
    2.3390   27.5430   10.1290 C   0  0  0  0  0  0  0  0  0  0  0  0
    1.4540   28.4920   10.6430 C   0  0  0  0  0  0  0  0  0  0  0  0
    0.2290   28.0820   11.1770 C   0  0  0  0  0  0  0  0  0  0  0  0
   -0.7090   28.9690   11.6540 O   0  0  0  0  0  0  0  0  0  0  0  0
   -1.2960   29.8190   10.7430 C   0  0  0  0  0  0  0  0  0  0  0  0
   -2.6420   29.6010   10.4490 C   0  0  0  0  0  0  0  0  0  0  0  0
   -3.3060   30.4440    9.5570 C   0  0  0  0  0  0  0  0  0  0  0  0
   -2.6250   31.5140    8.9750 C   0  0  0  0  0  0  0  0  0  0  0  0
   -1.2850   31.7400    9.2940 C   0  0  0  0  0  0  0  0  0  0  0  0
   -0.4540   33.0700    8.5850 Cl  0  0  0  0  0  0  0  0  0  0  0  0
   -0.6160   30.9020   10.1830 C   0  0  0  0  0  0  0  0  0  0  0  0
   -0.1250   26.7330   11.1780 C   0  0  0  0  0  0  0  0  0  0  0  0
    0.7810   25.7880   10.6790 C   0  0  0  0  0  0  0  0  0  0  0  0
    0.4240   24.3640   10.7000 N   0  0  0  0  0  0  0  0  0  0  0  0
    1.3160   23.5440   10.4460 O   0  0  0  0  0  0  0  0  0  0  0  0
   -0.7470   24.0690   10.9740 O   0  0  0  0  0  0  0  0  0  0  0  0
    2.0220   26.1840   10.1640 C   0  0  0  0  0  0  0  0  0  0  0  0
    3.8280   28.5790    7.3110 C   0  0  0  0  0  0  0  0  0  0  0  0
    4.2390   28.1850    6.0340 C   0  0  0  0  0  0  0  0  0  0  0  0
    6.2920   28.1270    4.2370 H   0  0  0  0  0  0  0  0  0  0  0  0
    7.8129   28.1781    1.0769 H   0  0  0  0  0  0  0  0  0  0  0  0
    6.9838   29.1794    2.3261 H   0  0  0  0  0  0  0  0  0  0  0  0
    8.9900   27.2540    2.9460 H   0  0  0  0  0  0  0  0  0  0  0  0
    4.6139   26.3232    1.8414 H   0  0  0  0  0  0  0  0  0  0  0  0
    4.8261   28.1269    1.7715 H   0  0  0  0  0  0  0  0  0  0  0  0
    6.5030   26.7150    0.1100 H   0  0  0  0  0  0  0  0  0  0  0  0
    8.0624   25.9016    1.3823 H   0  0  0  0  0  0  0  0  0  0  0  0
    7.7785   25.3695    3.0910 H   0  0  0  0  0  0  0  0  0  0  0  0
    5.8940   25.1040    0.9790 H   0  0  0  0  0  0  0  0  0  0  0  0
    5.2386   24.9921    6.7434 H   0  0  0  0  0  0  0  0  0  0  0  0
    4.5036   25.6970    9.0220 H   0  0  0  0  0  0  0  0  0  0  0  0
    1.7197   29.5593   10.6279 H   0  0  0  0  0  0  0  0  0  0  0  0
   -3.1798   28.7650   10.9201 H   0  0  0  0  0  0  0  0  0  0  0  0
   -4.3637   30.2655    9.3132 H   0  0  0  0  0  0  0  0  0  0  0  0
   -3.1428   32.1775    8.2668 H   0  0  0  0  0  0  0  0  0  0  0  0
    0.4364   31.0914   10.4409 H   0  0  0  0  0  0  0  0  0  0  0  0
   -1.1039   26.4148   11.5660 H   0  0  0  0  0  0  0  0  0  0  0  0
    2.7366   25.4348    9.7925 H   0  0  0  0  0  0  0  0  0  0  0  0
    3.4497   29.5983    7.4784 H   0  0  0  0  0  0  0  0  0  0  0  0
    4.1768   28.8929    5.1944 H   0  0  0  0  0  0  0  0  0  0  0  0
  1  2  2  0
  2  3  1  0
  3  4  1  0
  4  5  1  0
  5  6  1  0
  4  7  1  0
  7  8  1  0
  4  9  1  0
  9 10  1  0
  2 11  1  0
 11 12  2  0
 12 13  1  0
 13 14  2  0
 14 15  1  0
 15 16  1  0
 16 17  2  0
 17 18  1  0
 18 19  1  0
 19 20  1  0
 20 21  2  0
 21 22  1  0
 22 23  2  0
 23 24  1  0
 24 25  1  0
 24 26  2  0
 18 27  2  0
 27 28  1  0
 28 29  1  0
 29 30  2  0
 29 31  1  0
 28 32  2  0
 14 33  1  0
 33 34  2  0
 34 11  1  0
 32 16  1  0
 26 20  1  0
  3 35  1  0
  5 36  1  0
  5 37  1  0
  6 38  1  0
  7 39  1  0
  7 40  1  0
  8 41  1  0
  9 42  1  0
  9 43  1  0
 10 44  1  0
 12 45  1  0
 13 46  1  0
 17 47  1  0
 21 48  1  0
 22 49  1  0
 23 50  1  0
 26 51  1  0
 27 52  1  0
 32 53  1  0
 33 54  1  0
 34 55  1  0
M  CHG  2  29   1  31  -1
M  END
>  <vina_affinity>  (1) 
-8.253

$$$$
dec_C24746067
     RDKit          3D

 69 71  0  0  0  0  0  0  0  0999 V2000
   -2.9600   20.1420   16.6920 C   0  0  0  0  0  0  0  0  0  0  0  0
   -1.5400   20.0880   16.5660 O   0  0  0  0  0  0  0  0  0  0  0  0
   -0.9250   21.3030   16.6580 C   0  0  0  0  0  0  0  0  0  0  0  0
   -0.5950   21.8160   17.7210 O   0  0  0  0  0  0  0  0  0  0  0  0
   -0.6960   21.9330   15.3480 C   0  0  0  0  0  0  0  0  0  0  0  0
   -1.5090   22.9220   14.8060 C   0  0  0  0  0  0  0  0  0  0  0  0
   -2.7380   23.5720   15.3390 C   0  0  0  0  0  0  0  0  0  0  0  0
   -0.9930   23.2800   13.5930 N   0  0  0  0  0  0  0  0  0  0  0  0
    0.1370   22.5510   13.2990 C   0  0  0  0  0  0  0  0  0  0  0  0
    0.8920   22.7270   12.0750 C   0  0  0  0  0  0  0  0  0  0  0  0
    2.0190   22.3130   11.8460 O   0  0  0  0  0  0  0  0  0  0  0  0
    0.1440   23.4390   11.1820 O   0  0  0  0  0  0  0  0  0  0  0  0
    0.8370   24.5530   10.6200 C   0  0  0  0  0  0  0  0  0  0  0  0
   -0.1340   25.7210   10.4830 C   0  0  0  0  0  0  0  0  0  0  0  0
   -1.2300   25.5210    9.9470 O   0  0  0  0  0  0  0  0  0  0  0  0
    0.2510   26.9880   10.9490 N   0  0  0  0  0  0  0  0  0  0  0  0
   -0.0380   27.4580   12.3280 C   0  0  0  0  0  0  0  0  0  0  0  0
   -1.0260   26.6000   13.1540 C   0  0  0  0  0  0  0  0  0  0  0  0
   -2.5000   26.8520   12.8380 C   0  0  0  0  0  0  0  0  0  0  0  0
   -0.7690   26.6930   14.6570 C   0  0  0  0  0  0  0  0  0  0  0  0
    0.7000   27.9430   10.0070 C   0  0  0  0  0  0  0  0  0  0  0  0
    1.9760   28.0100    9.5300 C   0  0  0  0  0  0  0  0  0  0  0  0
    2.9360   27.0660    9.9090 N   0  0  0  0  0  0  0  0  0  0  0  0
    2.3490   29.0580    8.6810 N   0  0  0  0  0  0  0  0  0  0  0  0
    3.7600   29.3180    8.3700 C   0  0  0  0  0  0  0  0  0  0  0  0
    4.2880   28.4100    7.2750 C   0  0  0  0  0  0  0  0  0  0  0  0
    5.2200   27.4040    7.5720 C   0  0  0  0  0  0  0  0  0  0  0  0
    5.6930   26.5540    6.5710 C   0  0  0  0  0  0  0  0  0  0  0  0
    5.2370   26.6950    5.2630 C   0  0  0  0  0  0  0  0  0  0  0  0
    4.3080   27.6850    4.9540 C   0  0  0  0  0  0  0  0  0  0  0  0
    3.8340   28.5370    5.9540 C   0  0  0  0  0  0  0  0  0  0  0  0
    1.4500   30.0050    8.2120 C   0  0  0  0  0  0  0  0  0  0  0  0
    1.7340   30.9220    7.4420 O   0  0  0  0  0  0  0  0  0  0  0  0
    0.1700   29.8900    8.6480 N   0  0  0  0  0  0  0  0  0  0  0  0
   -0.2970   28.9350    9.4890 C   0  0  0  0  0  0  0  0  0  0  0  0
   -1.4930   28.8850    9.7650 O   0  0  0  0  0  0  0  0  0  0  0  0
    0.3520   21.6940   14.3780 C   0  0  0  0  0  0  0  0  0  0  0  0
    1.4610   20.7000   14.5180 C   0  0  0  0  0  0  0  0  0  0  0  0
   -3.2334   20.1524   17.7574 H   0  0  0  0  0  0  0  0  0  0  0  0
   -3.3366   21.0551   16.2079 H   0  0  0  0  0  0  0  0  0  0  0  0
   -3.4049   19.2601   16.2079 H   0  0  0  0  0  0  0  0  0  0  0  0
   -2.7125   23.5585   16.4386 H   0  0  0  0  0  0  0  0  0  0  0  0
   -2.7848   24.6128   14.9861 H   0  0  0  0  0  0  0  0  0  0  0  0
   -3.6246   23.0249   14.9861 H   0  0  0  0  0  0  0  0  0  0  0  0
   -1.3770   23.9890   12.9800 H   0  0  0  0  0  0  0  0  0  0  0  0
    1.6697   24.8404   11.2788 H   0  0  0  0  0  0  0  0  0  0  0  0
    1.2369   24.2830    9.6315 H   0  0  0  0  0  0  0  0  0  0  0  0
    0.9149   27.4925   12.8765 H   0  0  0  0  0  0  0  0  0  0  0  0
   -0.5294   28.4347   12.2071 H   0  0  0  0  0  0  0  0  0  0  0  0
   -0.8176   25.5689   12.8324 H   0  0  0  0  0  0  0  0  0  0  0  0
   -3.0650   26.9486   13.7769 H   0  0  0  0  0  0  0  0  0  0  0  0
   -2.5966   27.7797   12.2548 H   0  0  0  0  0  0  0  0  0  0  0  0
   -2.8993   26.0091   12.2548 H   0  0  0  0  0  0  0  0  0  0  0  0
   -1.6668   26.3681   15.2033 H   0  0  0  0  0  0  0  0  0  0  0  0
    0.0780   26.0444   14.9250 H   0  0  0  0  0  0  0  0  0  0  0  0
   -0.5332   27.7335   14.9250 H   0  0  0  0  0  0  0  0  0  0  0  0
    3.8320   27.2950    9.4860 H   0  0  0  0  0  0  0  0  0  0  0  0
    2.6840   26.1490    9.5390 H   0  0  0  0  0  0  0  0  0  0  0  0
    3.8627   30.3630    8.0424 H   0  0  0  0  0  0  0  0  0  0  0  0
    4.3457   29.1213    9.2801 H   0  0  0  0  0  0  0  0  0  0  0  0
    5.5815   27.2840    8.6040 H   0  0  0  0  0  0  0  0  0  0  0  0
    6.4268   25.7719    6.8157 H   0  0  0  0  0  0  0  0  0  0  0  0
    5.6103   26.0249    4.4746 H   0  0  0  0  0  0  0  0  0  0  0  0
    3.9469   27.7962    3.9209 H   0  0  0  0  0  0  0  0  0  0  0  0
    3.0978   29.3149    5.7033 H   0  0  0  0  0  0  0  0  0  0  0  0
   -0.4920   30.5600    8.2910 H   0  0  0  0  0  0  0  0  0  0  0  0
    1.6606   20.5211   15.5849 H   0  0  0  0  0  0  0  0  0  0  0  0
    1.1695   19.7551   14.0360 H   0  0  0  0  0  0  0  0  0  0  0  0
    2.3684   21.0928   14.0360 H   0  0  0  0  0  0  0  0  0  0  0  0
  1  2  1  0
  2  3  1  0
  3  4  2  0
  3  5  1  0
  5  6  2  0
  6  7  1  0
  6  8  1  0
  8  9  1  0
  9 10  1  0
 10 11  2  0
 10 12  1  0
 12 13  1  0
 13 14  1  0
 14 15  2  0
 14 16  1  0
 16 17  1  0
 17 18  1  0
 18 19  1  0
 18 20  1  0
 16 21  1  0
 21 22  2  0
 22 23  1  0
 22 24  1  0
 24 25  1  0
 25 26  1  0
 26 27  2  0
 27 28  1  0
 28 29  2  0
 29 30  1  0
 30 31  2  0
 24 32  1  0
 32 33  2  0
 32 34  1  0
 34 35  1  0
 35 36  2  0
  9 37  2  0
 37 38  1  0
 37  5  1  0
 35 21  1  0
 31 26  1  0
  1 39  1  0
  1 40  1  0
  1 41  1  0
  7 42  1  0
  7 43  1  0
  7 44  1  0
  8 45  1  0
 13 46  1  0
 13 47  1  0
 17 48  1  0
 17 49  1  0
 18 50  1  0
 19 51  1  0
 19 52  1  0
 19 53  1  0
 20 54  1  0
 20 55  1  0
 20 56  1  0
 23 57  1  0
 23 58  1  0
 25 59  1  0
 25 60  1  0
 27 61  1  0
 28 62  1  0
 29 63  1  0
 30 64  1  0
 31 65  1  0
 34 66  1  0
 38 67  1  0
 38 68  1  0
 38 69  1  0
M  END
>  <vina_affinity>  (1) 
-7.958

$$$$
